40

C      5.641580    2.366751    1.903387
C      4.671166    1.772028    2.287407
C      3.486527    1.041760    2.751536
N      2.530371    0.917893    1.674817
C      2.489116   -0.226703    0.905204
O      3.144686   -1.227399    1.154997
N      1.589193   -0.085636   -0.124437
C      1.325786   -1.123583   -0.997748
O      2.190896   -1.824126   -1.526166
C     -0.166708   -1.228574   -1.440090
C     -1.071400   -1.269967   -0.192965
O     -1.041929    0.007837    0.471940
C     -1.908400    0.053309    1.610131
C     -3.331395    0.413128    1.194499
C     -4.243456    0.573632    2.398174
C     -0.513994   -0.070714   -2.384659
C     -0.270643   -0.656048   -3.761441
C     -0.739544   -2.084784   -3.598010
N     -0.342303   -2.483055   -2.242544
H      6.508239    2.882296    1.558413
H      3.758366    0.057596    3.145247
H      2.991462    1.602813    3.550497
H      2.305847    1.774786    1.191336
H      0.763661    0.421869    0.179114
H     -0.724974   -2.041110    0.506470
H     -2.101499   -1.501621   -0.486468
H     -1.871533   -0.892137    2.163893
H     -1.514929    0.833651    2.270684
H     -3.740698   -0.355391    0.530131
H     -3.318376    1.340946    0.610259
H     -3.885016    1.369265    3.059066
H     -5.256569    0.832145    2.074662
H     -4.297490   -0.354933    2.975367
H     -1.571905    0.206932   -2.294961
H      0.088747    0.829981   -2.232113
H      0.797912   -0.625602   -4.005900
H     -0.819191   -0.121477   -4.542200
H     -0.312856   -2.749548   -4.355151
H     -1.831210   -2.140350   -3.677523
H      0.592463   -2.913974   -2.304857
