55

C      4.023940    3.183408   -3.005414
C      4.253389    1.830758   -3.238403
C      3.502254    0.869203   -2.560007
C      2.501927    1.241532   -1.641835
C      1.713776    0.132424   -0.922115
C      0.268801    0.590913   -0.493054
N     -0.655582   -0.469198   -0.018748
C     -1.099834   -1.330490   -1.126746
C     -2.012351   -2.450283   -0.622435
C     -3.207018   -1.894701    0.145994
C     -2.728841   -0.943961    1.250537
C     -3.887171   -0.360111    2.075132
N     -4.821569    0.462406    1.342750
C     -6.037126    0.106235    0.847725
N     -6.599718    1.146155    0.276899
C     -5.679346    2.136440    0.470888
N     -4.575036    1.767163    1.125602
C     -1.814874    0.142835    0.659068
N      2.580930   -0.485028    0.110023
C      2.696906    0.292068    1.356456
C      3.705651   -0.367565    2.312980
O      3.329665   -1.717426    2.621722
C      3.228897   -2.485736    1.414264
C      2.206325   -1.869859    0.444029
C      2.297472    2.611012   -1.409025
C      3.049855    3.572953   -2.089563
H      4.609318    3.933332   -3.530354
H      5.020834    1.521454   -3.942735
H      3.705386   -0.184681   -2.740760
H      1.565466   -0.617988   -1.710790
H     -0.201781    1.126023   -1.330359
H      0.378865    1.333348    0.307428
H     -1.625354   -0.743378   -1.891197
H     -0.242414   -1.805125   -1.614374
H     -1.440477   -3.124573    0.027877
H     -2.365482   -3.048720   -1.469935
H     -3.864903   -1.369328   -0.556394
H     -3.785479   -2.720050    0.576623
H     -2.124234   -1.535901    1.953903
H     -3.496304    0.252034    2.897291
H     -4.462960   -1.173378    2.533769
H     -6.450241   -0.889688    0.924234
H     -5.819221    3.153358    0.127116
H     -1.464263    0.780379    1.480328
H     -2.363859    0.779656   -0.045199
H      3.037002    1.312360    1.152291
H      1.726603    0.349603    1.864280
H      3.739138    0.188331    3.255467
H      4.716998   -0.363148    1.888474
H      4.220343   -2.563222    0.951606
H      2.912726   -3.496250    1.692361
H      1.223316   -1.906098    0.923438
H      2.171944   -2.485338   -0.461759
H      1.559946    2.956622   -0.690508
H      2.877764    4.629218   -1.898845
