51

C      7.454880    0.961010   -2.929163
C      6.737296    2.125206   -2.667622
C      5.509258    2.056219   -2.003434
C      4.985881    0.823608   -1.584768
C      3.686981    0.762124   -0.888092
C      3.456143   -0.026119    0.174292
C      2.169602    0.007616    0.885577
C      0.936362    0.212233    0.237496
C      0.861457    0.410398   -1.226510
N      1.715920    1.014771   -2.000276
O      2.736401    1.683374   -1.300800
C     -0.256132    0.141903    0.972217
O     -1.474549    0.345511    0.370859
C     -2.193886   -0.757488    0.019553
C     -1.851379   -2.084600    0.135885
C     -2.874878   -2.932707   -0.301384
C     -3.328184   -2.636463   -1.593206
C     -3.693372   -1.313122   -1.723397
C     -3.473217   -0.560281   -0.550321
N     -4.588827   -1.192256    0.481693
C     -4.579491   -0.367057    1.706282
C     -4.997198    1.047356    1.540031
C     -5.963821    1.688395    0.800926
N     -5.918935    3.039175    1.039429
C     -4.926881    3.165564    1.891435
O     -4.321360    2.001641    2.255461
C     -4.140453   -2.627316    0.672162
C     -0.227256   -0.051280    2.356235
C      0.990169   -0.246234    3.002488
C      2.178848   -0.232006    2.269578
C      5.716647   -0.341035   -1.867111
C      6.944323   -0.272693   -2.532277
H      8.407063    1.014221   -3.449900
H      7.128141    3.088500   -2.984140
H      4.961320    2.976853   -1.814109
H      4.223883   -0.685918    0.564664
H     -0.014311   -0.028162   -1.732453
H     -0.938041   -2.460662    0.568779
H     -3.624215   -3.396376   -2.303843
H     -4.303275   -0.945032   -2.536965
H     -3.607160   -0.414187    2.212100
H     -5.290169   -0.824419    2.407994
H     -6.676893    1.247874    0.117674
H     -4.540281    4.071520    2.335755
H     -4.959875   -3.304211    0.402938
H     -3.846404   -2.833729    1.709298
H     -1.151574   -0.051403    2.927454
H      1.017297   -0.407191    4.077634
H      3.119773   -0.392111    2.793798
H      5.328060   -1.317244   -1.588369
H      7.496314   -1.183772   -2.746729
