51

C     -9.040909    0.866693    1.266212
C     -7.923963    1.064267    0.554769
C     -7.612432    0.372948   -0.747338
C     -6.322123   -0.464053   -0.665156
C     -6.158421   -1.298899   -1.934916
O     -5.210230    0.443556   -0.556657
C     -4.093413   -0.098379    0.020572
C     -2.883082    0.436817   -0.168890
C     -1.678875   -0.093550    0.431508
C     -0.468234    0.452968    0.229936
C      0.780295   -0.009619    0.782178
C      2.000211    0.542743    0.670114
C      2.381564    1.813412   -0.009074
C      3.039646   -0.299806    1.408122
S      4.236043   -1.037837    0.306631
O      4.835851   -2.191748    0.949077
O      3.663425   -1.154979   -1.023120
C      5.522125    0.205071    0.232393
C      6.557348   -0.037791   -0.875159
C      7.441984   -1.254385   -0.600268
C      7.436826    1.206145   -1.032072
C      2.150963   -1.377287    1.984270
O      2.456202   -2.272550    2.753598
N      0.866993   -1.134530    1.539740
H     -9.206958    1.402755    2.195933
H     -9.812634    0.175478    0.942411
H     -7.182080    1.774035    0.918009
H     -8.452457   -0.269409   -1.038874
H     -7.507079    1.146223   -1.518532
H     -6.381497   -1.124283    0.211033
H     -7.008135   -1.973443   -2.078361
H     -5.246190   -1.903036   -1.888961
H     -6.066542   -0.655534   -2.816995
H     -4.269483   -0.963101    0.646176
H     -2.796872    1.313795   -0.806622
H     -1.801213   -0.967541    1.064526
H     -0.403643    1.326478   -0.415688
H      3.000912    2.424137    0.655767
H      1.515603    2.422317   -0.281938
H      2.943952    1.610443   -0.924761
H      3.533894    0.244511    2.215709
H      5.995210    0.243310    1.219637
H      5.026896    1.162696    0.057526
H      6.039349   -0.201400   -1.827981
H      6.867157   -2.183574   -0.643087
H      8.235382   -1.335474   -1.351405
H      7.916334   -1.187903    0.384589
H      6.829805    2.084028   -1.277863
H      8.164579    1.070197   -1.839187
H      7.988341    1.421616   -0.110454
H      0.099577   -1.736531    1.798440
