53

C     -3.110028    4.292570   -0.018087
C     -3.491577    3.144049    0.557065
C     -4.105252    1.992372   -0.171605
N     -3.131794    0.930947   -0.195171
C     -3.503317   -0.343362   -0.562494
O     -4.671967   -0.668946   -0.755748
C     -2.364621   -1.350713   -0.673895
C     -1.337187   -0.894584   -1.710861
C     -1.774433   -1.602838    0.724377
C     -0.749493   -2.723906    0.757018
C     -1.246424   -4.043942    0.778753
C     -0.383638   -5.133359    0.724783
C      0.981418   -4.909080    0.629227
Cl     2.060259   -6.248061    0.530594
C      1.489658   -3.608072    0.605654
C      0.648015   -2.489512    0.708162
N      1.126830   -1.185001    0.632908
C      2.536838   -0.805217    0.569216
C      3.176957   -0.895129    1.957591
C      2.582292    0.586293   -0.058114
C      2.679572    1.775488    0.704240
C      2.681171    3.034278    0.090167
C      2.575206    3.081876   -1.281452
O      2.552540    4.210148   -2.039327
C      2.433179    3.644805   -3.362114
O      2.358736    2.204174   -3.365213
C      2.466571    1.940127   -2.035950
C      2.463128    0.687691   -1.459666
H     -2.680135    5.094074    0.574724
H     -3.217847    4.461064   -1.085630
H     -3.372736    3.026786    1.632364
H     -5.015139    1.655744    0.336629
H     -4.362499    2.242824   -1.206900
H     -2.163983    1.199807   -0.312587
H     -2.813540   -2.281136   -1.047829
H     -1.833354   -0.579519   -2.635532
H     -0.649558   -1.706956   -1.966847
H     -0.740645   -0.049287   -1.353634
H     -2.588143   -1.868555    1.414960
H     -1.368576   -0.678981    1.148416
H     -2.319535   -4.223886    0.819921
H     -0.782047   -6.143567    0.737990
H      2.564308   -3.490260    0.514734
H      0.582639   -0.519653    1.170297
H      3.094000   -1.466768   -0.106079
H      2.606655   -0.338207    2.709651
H      3.223256   -1.932841    2.303723
H      4.201007   -0.505923    1.945017
H      2.749307    1.739086    1.788974
H      2.758870    3.944580    0.674557
H      1.527128    4.043701   -3.833112
H      3.302988    3.952691   -3.954769
H      2.354943   -0.197915   -2.078680
