20

C     -3.878638   -0.588619    0.353054
C     -2.603869   -0.615775   -0.053896
C     -1.566791    0.245499    0.597713
O     -1.858174    0.957556    1.558419
C     -0.158470    0.202025    0.000368
C      0.621850    1.444372    0.429060
S      2.169112    1.700861   -0.515001
C      2.801754   -0.008330   -0.600343
C      2.386599   -0.887423    0.569820
S      0.630967   -1.381925    0.519375
H     -4.203508    0.054022    1.167509
H     -4.627392   -1.216784   -0.117674
H     -2.285217   -1.262361   -0.863018
H     -0.265379    0.193853   -1.091428
H      0.858937    1.426614    1.499443
H      0.016361    2.343482    0.265157
H      2.495622   -0.449161   -1.555587
H      3.894338    0.064918   -0.624041
H      2.970106   -1.814065    0.544189
H      2.601791   -0.408757    1.531446
