49

C     -3.329835   -0.102063   -2.448150
C     -3.789253    0.925114   -1.718769
C     -3.567628    1.162845   -0.247585
N     -2.426580    0.427605    0.315345
C     -2.812272   -0.283350    1.561997
C     -3.295103   -1.695027    1.216398
C     -1.721723   -0.323875    2.655541
C     -0.307810   -0.566627    2.134532
C      0.012043    0.235355    0.847656
C     -1.171114    1.180387    0.473893
S     -0.770720    2.495269   -0.741049
C     -0.350445    1.603943   -2.278222
C      1.055523    2.023117   -2.687805
O      1.235924    2.835483   -3.600860
N      2.154861    1.606332   -1.982369
C      2.364398    0.552490   -1.121702
C      3.509819    0.505214   -0.410136
C      3.964146   -0.578521    0.450663
C      5.039321   -0.564273    1.257779
C      5.452288   -1.738759    2.092353
Cl     6.068512    0.818703    1.438975
C      1.474043   -0.545445   -1.114617
N      1.441907   -1.599326   -1.907852
N      0.387231   -2.364632   -1.498441
N     -0.232922   -1.802441   -0.475877
N      0.428891   -0.653770   -0.226480
H     -3.562360   -0.184599   -3.504875
H     -2.723769   -0.889424   -2.007991
H     -4.413359    1.665586   -2.215393
H     -4.512518    0.861794    0.225641
H     -3.493544    2.237530   -0.043515
H     -3.654761    0.236760    2.039626
H     -2.495505   -2.313132    0.800541
H     -3.671433   -2.200965    2.112430
H     -4.115761   -1.669449    0.491392
H     -1.727447    0.637710    3.187365
H     -1.965407   -1.076277    3.415752
H      0.400424   -0.270414    2.919773
H     -0.151881   -1.644195    2.007060
H      0.884094    0.858038    1.085003
H     -1.321374    1.827034    1.349345
H     -0.488391    0.528103   -2.252301
H     -1.030205    1.971540   -3.055512
H      2.971055    2.153484   -2.238242
H      4.187049    1.355461   -0.482994
H      3.385459   -1.501560    0.412829
H      4.778897   -2.592268    1.959571
H      5.446663   -1.476304    3.155563
H      6.460573   -2.068202    1.820096
