35

C      4.946712   -1.781839   -0.464620
C      4.349191   -0.827175    0.260785
C      3.507601    0.273679   -0.307729
O      2.219900    0.180369    0.305203
C      1.331130    1.110881   -0.139695
O      1.575877    1.972326   -0.972908
C     -0.014249    0.902060    0.530254
C     -0.728412    2.254310    0.733483
C     -2.152402    2.099624    1.283455
C     -2.997022    1.116924    0.464209
C     -2.258963   -0.206414    0.343279
C     -2.894994   -1.272340   -0.536307
C     -1.726674   -2.205575   -0.887882
C     -0.439575   -1.455371   -0.511047
C     -0.894531   -0.012715   -0.318052
H      4.853427   -1.821862   -1.545640
H      5.543299   -2.551637    0.015567
H      4.471314   -0.830554    1.341363
H      3.412030    0.177412   -1.395725
H      3.965312    1.238751   -0.062293
H      0.157744    0.461569    1.521476
H     -0.782064    2.795986   -0.220178
H     -0.140671    2.885458    1.411254
H     -2.097225    1.748586    2.321520
H     -2.645603    3.077987    1.305469
H     -3.968531    0.967774    0.948394
H     -3.192042    1.540193   -0.528691
H     -2.126356   -0.625440    1.352165
H     -3.703381   -1.804202   -0.025308
H     -3.308566   -0.832822   -1.451845
H     -1.792625   -3.148277   -0.334044
H     -1.743738   -2.448956   -1.955737
H      0.326678   -1.551162   -1.286549
H     -0.029448   -1.865898    0.419467
H     -1.023143    0.438349   -1.314209
