35

C      6.766493    1.422748   -1.592790
C      6.000334    0.878096   -0.638111
C      5.482637   -0.524453   -0.658806
N      4.057840   -0.458091   -0.822852
C      3.166676   -0.609089    0.216318
O      3.510027   -0.889477    1.360684
C      1.753414   -0.389962   -0.175826
N      1.483269   -0.035059   -1.440338
S     -0.136544    0.175422   -1.620001
C     -0.571056   -0.198206   -0.011205
C     -1.953827   -0.144024    0.435460
O     -2.319337   -0.303398    1.595157
O     -2.811005    0.112509   -0.635339
C     -4.159960    0.181910   -0.281302
C     -4.954671   -0.953332   -0.425971
C     -6.311972   -0.874385   -0.117980
C     -6.861102    0.334743    0.315926
C     -6.056327    1.470122    0.438711
C     -4.698215    1.398958    0.132378
C      0.590012   -0.517686    0.692445
C      0.669690   -0.923387    2.130970
H      7.062789    0.866253   -2.476500
H      7.113325    2.448156   -1.506158
H      5.737367    1.475901    0.232531
H      5.748699   -1.040722    0.268546
H      5.884581   -1.094558   -1.502372
H      3.668223   -0.146536   -1.706915
H     -4.526498   -1.889485   -0.770057
H     -6.944081   -1.753204   -0.215911
H     -7.919766    0.392942    0.557260
H     -6.490011    2.409091    0.772993
H     -4.072103    2.281106    0.221114
H      1.110756   -0.117207    2.725788
H     -0.305409   -1.164177    2.558314
H      1.285751   -1.821522    2.242725
