36

C     -4.139022   -3.055537   -0.661104
C     -3.099986   -2.762407    0.132399
C     -2.921196   -1.468085    0.868713
N     -1.732739   -0.798788    0.348963
C     -1.906036    0.044748   -0.837083
C     -2.339658    1.463568   -0.466088
C     -2.473397    2.343022   -1.698492
C     -0.523858   -0.983570    1.026336
O     -0.447633   -1.699114    2.026982
C      0.710407   -0.266341    0.456955
O      1.841219   -0.418319    1.306016
C      3.017608    0.172138    0.927329
C      3.198645    0.890186   -0.260335
C      4.441980    1.457420   -0.561298
C      5.509157    1.309717    0.321562
Cl     7.032937    2.011358   -0.058227
C      5.349478    0.599495    1.505785
C      4.107755    0.033355    1.805601
Cl     3.961104   -0.838714    3.292363
H     -4.204705   -4.022980   -1.149995
H     -4.942683   -2.347834   -0.837327
H     -2.325374   -3.510856    0.290445
H     -3.785963   -0.805762    0.752525
H     -2.815505   -1.675584    1.938799
H     -0.970783    0.080735   -1.403139
H     -2.648444   -0.421822   -1.494686
H     -1.616264    1.914089    0.222805
H     -3.299374    1.437626    0.062705
H     -1.518687    2.423723   -2.227996
H     -3.217955    1.937285   -2.390810
H     -2.789156    3.351160   -1.412421
H      0.925223   -0.718010   -0.518262
H      0.473083    0.798155    0.362826
H      2.396497    1.028238   -0.977764
H      4.570315    2.012672   -1.487598
H      6.183012    0.485033    2.193170
