32

C     -4.552519    1.738630    1.746415
C     -4.358712    1.530438    0.437089
C     -3.101907    1.877287   -0.306919
N     -2.499262    0.660074   -0.803616
C     -2.763603    0.124186   -2.034804
O     -3.517550    0.544474   -2.895664
N     -1.987931   -1.024806   -2.119668
N     -1.272038   -1.207012   -0.970035
C     -1.607515   -0.184762   -0.234327
S     -1.005681    0.095213    1.359081
C      0.630587   -0.451157    1.041057
C      0.942158   -1.855009    1.489779
N      1.436186    0.392344    0.477595
C      2.724592    0.011603    0.261564
N      3.497835   -0.345948    1.234172
N      4.777081   -0.694033    0.885310
C      5.290442   -0.679018   -0.388558
O      6.442171   -1.001830   -0.653604
C      4.363707   -0.245417   -1.455371
C      3.108470    0.098085   -1.155770
H     -5.494469    1.471072    2.216939
H     -3.785054    2.174866    2.379196
H     -5.166303    1.098225   -0.152078
H     -2.388626    2.410039    0.329864
H     -3.354353    2.527344   -1.151806
H     -1.969372   -1.673597   -2.895642
H      1.497295   -1.818770    2.431634
H      1.543844   -2.369187    0.734876
H      0.032279   -2.441183    1.648787
H      5.395928   -0.972676    1.639575
H      4.755325   -0.218638   -2.463233
H      2.386993    0.429164   -1.888124
