54

C      3.246016   -2.957988    1.889886
C      4.068134   -2.913883    0.831554
C      4.902149   -1.753249    0.352960
N      4.750080   -0.517238    1.103430
C      5.582672   -0.100394    2.110640
C      5.131354    1.152031    2.444692
N      4.056229    1.501442    1.672543
C      3.828170    0.480456    0.877415
N      2.855379    0.350814   -0.048822
C      1.799790    1.353508   -0.130063
C      0.766120    1.238231    0.987706
C      0.153896   -0.150810    1.168321
N     -0.302596   -0.758482   -0.085706
C     -1.544537   -0.305216   -0.579558
N     -2.188917    0.687600    0.070549
C     -3.358713    1.169359   -0.393405
N     -3.999162    2.198129    0.324616
C     -5.228420    2.833863   -0.083468
C     -5.594500    3.726493    1.092658
N     -4.379610    3.823170    1.841264
C     -3.490134    2.809915    1.480091
O     -2.492055    2.575095    2.138918
C     -3.926393    0.660950   -1.557433
C     -3.277603   -0.364958   -2.241028
C     -2.071693   -0.860744   -1.752827
C     -1.419222   -1.918717   -2.468294
C     -0.885495   -2.807283   -3.076156
C     -0.237328   -3.886636   -3.816425
O     -0.454619   -3.700488   -5.210242
H      3.095598   -2.105869    2.547110
H      2.696885   -3.863657    2.129991
H      4.164224   -3.814774    0.228322
H      4.670701   -1.536113   -0.695681
H      5.962255   -2.031101    0.394375
H      6.398783   -0.703165    2.482404
H      5.524242    1.824350    3.195921
H      2.532354   -0.572774   -0.320071
H      2.230884    2.362139   -0.130715
H      1.304236    1.242904   -1.101558
H      1.220073    1.534825    1.941231
H     -0.022174    1.973469    0.792139
H      0.920539   -0.813019    1.586832
H     -0.645875   -0.127135    1.919164
H     -0.353780   -1.770866   -0.010243
H     -5.037691    3.428352   -0.983239
H     -6.017201    2.101366   -0.277975
H     -5.939115    4.719374    0.791439
H     -6.349988    3.256388    1.731658
H     -4.275739    4.238538    2.758470
H     -4.859782    1.037304   -1.956730
H     -3.711162   -0.768249   -3.152693
H      0.843942   -3.895343   -3.626775
H     -0.652835   -4.859258   -3.524442
H      0.011633   -4.422660   -5.662748
