62

C     -1.242980    1.030379    3.385329
C     -2.423313    1.370722    2.513803
C     -2.615237    0.952551    1.245038
C     -1.729928    0.010585    0.464451
N     -0.876186    0.849211   -0.362099
C      0.460015    0.578717   -0.491319
O      1.058497   -0.302974    0.106013
N      1.054030    1.452901   -1.368544
C      2.497874    1.441993   -1.533705
C      3.038395    0.203993   -2.271961
N      4.482017    0.354190   -2.497923
C      5.213341   -0.664781   -3.127841
C      4.590181   -1.686074   -3.864952
C      5.327323   -2.659087   -4.548529
C      6.713809   -2.615282   -4.542097
C      7.358823   -1.591647   -3.857101
C      6.625352   -0.612019   -3.151068
C      7.395546    0.494648   -2.473461
F      8.639600    0.103907   -2.062750
F      7.601695    1.571461   -3.283966
F      6.789166    0.981302   -1.347666
C     -2.595702   -0.853657   -0.465812
O     -1.819797   -1.887941   -1.170997
C     -2.504055   -2.852567   -0.549473
C     -2.561066   -4.209216   -0.493432
C     -3.513149   -4.728646    0.387687
C     -4.342669   -3.871274    1.151474
C     -4.233619   -2.478233    1.048345
C     -3.290352   -2.001749    0.177279
C     -3.428134    2.269707    3.118541
C     -3.080418    3.566742    3.518514
C     -4.032347    4.413567    4.090563
C     -5.342247    3.969751    4.271970
C     -5.702111    2.676608    3.881637
C     -7.045373    2.214945    4.070913
N     -8.132793    1.836590    4.218921
C     -4.747228    1.830566    3.306165
H     -0.530529    0.360487    2.900451
H     -0.686769    1.933486    3.659269
H     -1.579923    0.539077    4.304931
H     -3.487454    1.320774    0.706169
H     -1.126641   -0.624763    1.119995
H     -1.299412    1.323589   -1.144568
H      0.619111    2.363642   -1.388856
H      2.959883    1.523148   -0.543202
H      2.755900    2.348503   -2.091673
H      2.842046   -0.703927   -1.690758
H      2.512537    0.118056   -3.230621
H      4.958581    0.686110   -1.654194
H      3.506967   -1.755982   -3.921989
H      4.808608   -3.443699   -5.093306
H      7.289148   -3.364548   -5.079796
H      8.447324   -1.549081   -3.877246
H     -3.192111   -0.274263   -1.184311
H     -1.910434   -4.839457   -1.084233
H     -3.618908   -5.805755    0.494778
H     -5.072732   -4.306172    1.832334
H     -4.861168   -1.819475    1.637655
H     -2.064715    3.932575    3.377116
H     -3.751005    5.420219    4.394917
H     -6.076488    4.637256    4.718625
H     -5.028775    0.820314    3.014328
