55

C      4.328937    3.256242    1.921615
C      3.101105    2.956432    1.102620
O      2.170797    3.756398    1.028588
C      3.012763    1.653747    0.381737
C      3.918283    0.618157    0.597114
C      3.776872   -0.579392   -0.110071
C      2.729058   -0.785936   -1.025213
N      2.783607   -1.988115   -1.738558
C      2.159433   -3.066778   -1.365828
C      2.525762   -4.344181   -2.014777
C      2.280451   -5.416594   -1.259565
N      1.673407   -5.356048   -0.029659
N      0.902794   -4.301787    0.356955
C      1.073949   -3.188935   -0.300912
C      0.081176   -2.069848   -0.105258
C     -0.656145   -1.742455   -1.410931
C     -1.968317   -1.047954   -1.074014
O     -3.045708   -1.625965   -1.185297
N     -1.844769    0.238214   -0.605696
C     -2.981551    1.015430   -0.138071
C     -2.679859    2.512297   -0.218103
C     -3.891047    3.360290    0.175670
C     -4.816371    2.675129    1.182580
C     -4.056325    1.715435    2.086999
C     -3.370160    0.601759    1.292034
C      0.110877   -0.947640   -2.481253
O      0.692876    0.265168   -2.014028
C      1.810300    0.254269   -1.229688
C      1.969994    1.465143   -0.532899
H      4.341979    2.633495    2.819599
H      5.233359    3.101657    1.327312
H      4.308441    4.307070    2.227020
H      4.744084    0.711643    1.296042
H      4.510888   -1.370455    0.038837
H      3.061703   -4.354649   -2.950990
H      2.579707   -6.414415   -1.565097
H      1.431662   -6.259291    0.384997
H      0.545028   -1.211824    0.380536
H     -0.655546   -2.425079    0.630258
H     -0.946515   -2.690091   -1.888214
H     -0.919908    0.649018   -0.537499
H     -3.824954    0.794668   -0.805812
H     -2.352681    2.789303   -1.227876
H     -1.838379    2.751139    0.446456
H     -4.472746    3.614544   -0.718681
H     -3.533740    4.311987    0.587422
H     -5.594023    2.120163    0.642716
H     -5.333853    3.433257    1.781194
H     -3.300293    2.276660    2.650667
H     -4.733010    1.274496    2.827670
H     -2.489589    0.266120    1.855277
H     -4.035151   -0.269690    1.235590
H     -0.609344   -0.641018   -3.251677
H      0.833504   -1.552754   -3.033218
H      1.257188    2.271559   -0.706008
