43

C      4.484935    1.206362    2.148331
C      4.118021    0.998087    0.703888
C      2.992719    1.484494    0.147590
N      2.071910    2.225308    0.840569
C      0.847140    2.121273    0.467054
S     -0.585518    2.842447    1.048818
N     -1.093780    2.030576   -0.346776
C     -2.408820    1.463332   -0.551950
C     -2.730199    0.276804    0.367034
C     -4.097373   -0.325876    0.133292
N     -4.884817    0.265979   -0.805182
C     -6.114374   -0.255385   -1.028681
C     -6.618538   -1.358737   -0.359879
C     -8.000395   -1.848878   -0.658534
F     -8.204789   -3.139926   -0.279141
F     -8.305040   -1.797198   -1.983932
F     -8.955382   -1.115940   -0.025261
C     -5.804741   -1.951714    0.610177
C     -4.532617   -1.436872    0.861174
Cl    -3.563203   -2.197464    2.065977
C      0.081640    1.355585   -0.553252
O      0.411599    0.417749   -1.232006
C      5.069695    0.217527   -0.120959
C      4.621971   -0.833037   -0.937447
C      5.521898   -1.578645   -1.703387
C      6.882237   -1.287950   -1.659660
C      7.343315   -0.252522   -0.850733
C      6.443270    0.493785   -0.084916
H      4.792108    0.260228    2.606157
H      5.306275    1.922970    2.243935
H      3.648534    1.586694    2.743407
H      2.817179    1.323949   -0.917520
H     -3.140817    2.270369   -0.427930
H     -2.449013    1.136407   -1.598581
H     -2.670772    0.602972    1.412477
H     -1.973566   -0.503543    0.218871
H     -6.696567    0.263321   -1.789041
H     -6.162995   -2.814611    1.169194
H      3.565667   -1.090982   -0.976479
H      5.158331   -2.388904   -2.329547
H      7.582429   -1.868615   -2.254196
H      8.404193   -0.023081   -0.814673
H      6.828247    1.303667    0.529265
