60

C      5.834828   -2.201203   -1.451239
C      5.204603   -1.054313   -0.694099
C      3.877412   -1.085044   -0.445527
C      3.065612   -0.115676    0.259372
C      1.769902   -0.270610    0.449948
C      0.654235   -1.097534    0.234360
C      0.238790   -2.290655    1.012322
N     -1.067161   -2.164149    1.665810
C     -2.286808   -1.984941    0.833121
C     -2.203184   -2.401911   -0.639441
C     -2.996532   -0.614133    1.111835
N     -3.741826   -0.021279   -0.017407
C     -5.106583   -0.529361   -0.182593
C     -6.110522    0.215851    0.695618
C     -6.544692    1.566652    0.133727
C     -5.403609    2.561824   -0.058188
C     -4.419334    2.131430   -1.138516
C     -3.333299    1.198275   -0.592799
N     -2.130293    1.681458   -0.746849
N     -1.120661    0.789918   -0.458922
C     -0.236253    1.167044    0.426514
C     -0.244310    2.553365    1.033138
N      0.670887    0.267723    0.975536
C      6.152714   -0.032626   -0.331065
N      5.890377    1.190002    0.157441
O      7.145677    1.765173    0.326400
C      8.052030    0.836295   -0.081840
C      9.472716    1.213389    0.002718
N      7.501073   -0.280843   -0.492007
H      5.093354   -2.942729   -1.770215
H      6.564567   -2.728634   -0.826563
H      6.335376   -1.844311   -2.358639
H      3.319624   -1.948682   -0.810281
H      3.527854    0.782331    0.655109
H      0.311353   -1.095939   -0.790307
H      0.976448   -2.490377    1.800106
H      0.259129   -3.180770    0.373937
H     -1.003350   -1.415066    2.355395
H     -2.975830   -2.725758    1.264831
H     -1.681201   -1.675657   -1.262482
H     -3.206029   -2.526265   -1.061677
H     -1.710042   -3.373286   -0.748718
H     -3.693001   -0.778162    1.946573
H     -2.304675    0.116145    1.540280
H     -5.402626   -0.496853   -1.237662
H     -5.130767   -1.590376    0.095335
H     -5.716335    0.352413    1.709518
H     -7.009328   -0.405838    0.792512
H     -7.067117    1.416628   -0.819620
H     -7.278213    2.006135    0.821239
H     -4.888018    2.730891    0.894974
H     -5.845493    3.520870   -0.355213
H     -3.930749    3.029962   -1.537613
H     -4.921737    1.651194   -1.985030
H     -1.113899    2.657603    1.688071
H     -0.290670    3.308036    0.243188
H      0.662422    2.720062    1.621406
H      9.800450    1.234045    1.046035
H      9.637400    2.203301   -0.433001
H     10.095314    0.494964   -0.538402
