47

C      7.670235   -1.893022    0.178294
C      6.989810   -0.902197   -0.733656
O      7.578996   -0.437666   -1.702525
N      5.704326   -0.607925   -0.315506
C      4.787666    0.284468   -0.913194
C      5.066490    1.035593   -2.052511
C      4.113390    1.919502   -2.557330
C      2.870383    2.042358   -1.935462
C      2.539511    1.264915   -0.820064
N      1.302679    1.471124   -0.201672
C      0.632070    0.362219    0.501217
C      0.722021    0.602178    2.004928
C     -0.852574    0.307715    0.056089
O     -1.337250    1.135616   -0.716093
N     -1.582096   -0.746684    0.568479
C     -2.982917   -0.931919    0.236190
C     -3.895406    0.006022    1.030330
C     -5.350027   -0.216968    0.698104
C     -6.140049   -1.067960    1.483201
C     -7.481428   -1.283934    1.159044
C     -8.036341   -0.653186    0.047443
Cl    -9.688518   -0.921894   -0.350952
C     -7.261607    0.191542   -0.743864
C     -5.920646    0.408088   -0.420138
C      3.528329    0.416658   -0.301337
H      6.969573   -2.666352    0.506203
H      8.073372   -1.367670    1.048010
H      8.486771   -2.382194   -0.360698
H      5.382255   -1.074448    0.522116
H      6.021803    0.972595   -2.563292
H      4.344193    2.520610   -3.433037
H      2.153063    2.753179   -2.339271
H      0.635029    1.935760   -0.827042
H      1.069966   -0.607968    0.236202
H      1.762176    0.707868    2.329969
H      0.278102   -0.224472    2.568791
H      0.190561    1.517560    2.290053
H     -1.143491   -1.409468    1.194100
H     -3.225941   -1.979168    0.448235
H     -3.108488   -0.773388   -0.841454
H     -3.734206   -0.139183    2.106447
H     -3.636652    1.054585    0.836107
H     -5.718718   -1.566092    2.353575
H     -8.086524   -1.942774    1.775943
H     -7.692695    0.683685   -1.611491
H     -5.321891    1.069228   -1.044980
H      3.324692   -0.140878    0.606500
