42

C     -6.114228    0.784195    0.564271
C     -4.961821    0.191541   -0.203629
O     -5.045892   -0.013885   -1.415611
C     -3.713175   -0.138644    0.536802
C     -3.072444   -1.310415    0.345669
C     -3.551837   -2.421999   -0.544478
O     -1.891146   -1.637402    0.993471
C     -1.131394   -0.539892    1.506080
C     -0.264519    0.094808    0.410113
C      0.715126   -0.915868   -0.198707
C      1.603552   -0.292719   -1.277440
N      2.430182    0.779429   -0.729866
C      3.030197    1.769169   -1.627691
C      4.311376    1.401065   -0.969458
C      5.669835    1.583865   -0.873033
C      6.359509    0.730449   -0.002589
C      5.669852   -0.266566    0.716628
F      6.365037   -1.074207    1.530497
C      4.291706   -0.422966    0.593235
F      3.634716   -1.366212    1.278286
C      3.652212    0.440277   -0.244550
N     -1.998179    0.412366    2.138193
C     -3.167956    0.789486    1.553258
O     -3.728775    1.829650    1.875093
H     -7.051881    0.402081    0.149739
H     -6.093428    1.873121    0.477942
H     -6.077045    0.489431    1.616543
H     -3.315959   -3.393130   -0.094890
H     -3.051160   -2.368140   -1.516111
H     -4.634086   -2.409367   -0.699824
H     -0.481896   -0.937559    2.293818
H     -0.894752    0.498493   -0.392024
H      0.282570    0.942951    0.839244
H      0.154563   -1.741446   -0.653358
H      1.328400   -1.351615    0.596585
H      2.217892   -1.068671   -1.752835
H      0.957679    0.119891   -2.062871
H      2.626991    2.769378   -1.441111
H      2.916194    1.516322   -2.687272
H      6.186611    2.337699   -1.455608
H      7.435614    0.819418    0.118428
H     -1.598239    1.095617    2.767209
