59

C      2.564635   -1.541393   -1.148687
C      2.937118   -0.085878   -1.032341
C      2.030697    0.900589   -0.873522
C      0.507555    0.796028   -0.699141
C     -0.531137    1.628261   -0.525748
C     -1.408353    0.498512   -0.452986
N     -2.852870    0.368112   -0.242639
C     -3.516046   -0.844902   -0.186028
O     -2.963762   -1.929304   -0.333924
N     -4.871877   -0.667362    0.046235
C     -5.752868   -1.735922    0.189443
C     -5.544492   -3.102123    0.173245
N     -6.680404   -3.758175    0.541401
N     -7.611728   -2.851306    0.785184
N     -7.118355   -1.626612    0.462915
C     -7.981233   -0.494804    0.433476
C     -9.185220   -0.537530    1.161071
C    -10.051403    0.558891    1.154121
C     -9.727779    1.683135    0.406117
F    -10.559447    2.732495    0.395255
C     -8.558137    1.728863   -0.345338
C     -7.682974    0.637769   -0.339872
C     -0.361571   -0.325936   -0.647170
C      4.295336    0.352250   -1.129684
N      4.888522    0.921787   -2.160258
C      6.186244    1.127431   -1.780255
C      7.239998    1.693362   -2.515322
C      8.499885    1.803507   -1.917505
C      8.705808    1.359223   -0.612364
C      7.664450    0.796276    0.136720
C      6.406147    0.689597   -0.475792
N      5.175324    0.205855   -0.065752
C      4.852458   -0.333273    1.256055
C      5.600687   -1.633849    1.554256
C      5.023952    0.701972    2.370966
H      1.841895   -1.699671   -1.955244
H      3.444410   -2.148099   -1.391500
H      2.158518   -1.920083   -0.205875
H      2.387855    1.931015   -0.850509
H     -0.659788    2.701226   -0.453006
H     -3.367844    1.225700   -0.114210
H     -5.194097    0.258344    0.281997
H     -4.632248   -3.646922   -0.027993
H     -9.456980   -1.412105    1.751903
H    -10.976304    0.538536    1.723053
H     -8.349588    2.606414   -0.950034
H     -6.824515    0.675714   -1.004398
H     -0.257063   -1.403210   -0.715769
H      7.069130    2.033828   -3.530768
H      9.322813    2.239292   -2.479008
H      9.694033    1.452823   -0.165149
H      7.846690    0.459260    1.150524
H      3.787386   -0.588241    1.250670
H      5.459464   -2.360648    0.746259
H      5.227938   -2.083780    2.481331
H      6.676998   -1.477172    1.675689
H      6.071801    0.971397    2.533191
H      4.636169    0.309625    3.317429
H      4.474167    1.621214    2.138424
