43

C     -6.035723    1.647345   -2.893934
C     -4.933673    0.989889   -2.101991
O     -3.798872    0.894591   -2.557745
N     -5.369961    0.500417   -0.886637
C     -4.602390   -0.155384    0.107012
C     -3.206030   -0.241228    0.052566
C     -2.490847   -0.925960    1.047361
C     -1.002248   -1.047785    1.013455
O     -0.410557   -1.177867    2.080338
N     -0.430266   -1.037999   -0.246063
C      0.928495   -1.110635   -0.499108
C      1.970710   -1.158289    0.393066
N      3.116894   -1.207971   -0.350847
C      4.477152   -1.302303    0.160365
C      5.009831    0.044103    0.582363
C      5.392294    0.989420   -0.381509
C      5.882393    2.237422    0.004868
C      5.993583    2.554869    1.357007
C      5.612213    1.626453    2.323927
C      5.121390    0.377149    1.940257
N      2.886589   -1.226607   -1.683047
C      1.555308   -1.147759   -1.765495
C     -3.177944   -1.492363    2.128864
C     -4.567076   -1.395123    2.207557
C     -5.273223   -0.732607    1.202065
Cl    -6.997001   -0.644938    1.337193
H     -6.792098    2.083507   -2.235111
H     -5.612232    2.452293   -3.501415
H     -6.504095    0.904380   -3.544590
H     -6.368191    0.536285   -0.699888
H     -2.661058    0.259512   -0.739427
H     -1.023541   -1.018111   -1.065752
H      2.001597   -1.149959    1.473586
H      4.461060   -2.008442    0.998787
H      5.109979   -1.739886   -0.620691
H      5.298928    0.758095   -1.441832
H      6.171816    2.963356   -0.750477
H      6.372184    3.528345    1.657087
H      5.692976    1.877517    3.378439
H      4.822457   -0.330755    2.710400
H      1.096985   -1.126660   -2.745262
H     -2.629116   -2.008831    2.915360
H     -5.088691   -1.837487    3.052749
