54

C      0.060071    2.439629    0.416637
C     -0.004018    1.252985   -0.506498
O      0.247608    1.326943   -1.706604
C     -0.387179   -0.047859    0.076502
C      0.560772   -1.085411    0.197271
C      1.984373   -0.900923   -0.292594
N      2.897254   -0.713286    0.835371
C      4.285052   -0.519661    0.411401
C      4.537716    0.848462   -0.139423
C      4.829167    1.247415   -1.436097
C      4.953589    0.383168   -2.640298
N      5.012055    2.612266   -1.597526
C      4.853468    3.225025   -0.447303
S      4.499869    2.227079    0.894013
C      0.152722   -2.290664    0.831604
C      0.993716   -3.413508    1.038291
C      0.531146   -4.567141    1.672287
C     -0.780328   -4.622775    2.115351
C     -1.615873   -3.522230    1.923359
C     -1.177383   -2.363229    1.296577
N     -2.056650   -1.359604    1.166961
C     -1.696076   -0.214909    0.548922
N     -2.669728    0.790977    0.404392
C     -3.053504    1.056589   -0.999209
C     -4.533195    0.773370   -1.247201
C     -5.443297    1.554073   -0.300242
C     -4.801216    1.790294    1.066493
C     -3.767944    0.709908    1.379649
H     -0.763023    3.121501    0.191453
H      1.015713    2.949565    0.271446
H     -0.003360    2.132229    1.464110
H      2.063414   -0.065393   -0.990309
H      2.269790   -1.784021   -0.876950
H      2.608694    0.095182    1.384166
H      4.929708   -0.672537    1.285658
H      4.576416   -1.298387   -0.302120
H      5.582634    0.867576   -3.396447
H      3.967345    0.198772   -3.080584
H      5.412132   -0.579288   -2.393333
H      4.945966    4.300172   -0.349486
H      2.032286   -3.396866    0.715954
H      1.197180   -5.413067    1.821783
H     -1.156978   -5.513406    2.612969
H     -2.643675   -3.569469    2.276333
H     -2.466876    0.467681   -1.713658
H     -2.847445    2.112544   -1.211603
H     -4.795621    1.008429   -2.285463
H     -4.717095   -0.299926   -1.114330
H     -5.714266    2.520398   -0.745068
H     -6.382913    1.001799   -0.178816
H     -5.576479    1.814744    1.839705
H     -4.315531    2.774644    1.070546
H     -4.262380   -0.270297    1.370491
H     -3.367822    0.880437    2.386380
