32

C      5.090891   -1.454412   -0.569302
C      4.318743   -0.474339    0.275138
O      4.845743    0.101003    1.221491
N      2.974205   -0.442546   -0.024193
C      2.262781    0.733744   -0.023227
O      2.716832    1.854139    0.155152
N      0.932404    0.493462   -0.316928
C     -0.008155    1.605070   -0.278208
C     -1.389139    1.226614   -0.846980
C     -2.313404    2.447313   -0.868757
C     -2.036486    0.071361   -0.096016
C     -2.386724   -1.098551   -0.787859
C     -2.967322   -2.176268   -0.116763
C     -3.206785   -2.098464    1.252972
C     -2.869480   -0.942010    1.952014
C     -2.289792    0.137424    1.282746
H      6.124646   -1.110866   -0.666295
H      5.072181   -2.437409   -0.091711
H      4.663658   -1.529785   -1.573452
H      2.644092   -1.082782   -0.728033
H      0.583613   -0.364643    0.092761
H     -0.075153    1.943799    0.762588
H      0.419855    2.431231   -0.859256
H     -1.237274    0.915827   -1.889964
H     -1.882815    3.246052   -1.482287
H     -2.479356    2.851299    0.135974
H     -3.291498    2.191231   -1.291183
H     -2.213327   -1.179138   -1.858992
H     -3.237830   -3.075419   -0.664509
H     -3.662117   -2.936097    1.774938
H     -3.061708   -0.877764    3.020218
H     -2.041278    1.030922    1.851638
