50

C      5.463558   -2.929465   -1.626758
C      4.444616   -1.820917   -1.597120
O      4.177254   -1.170219   -2.604742
C      3.734196   -1.525250   -0.319884
C      3.738044   -2.424202    0.755811
C      3.047610   -2.118658    1.932697
C      2.344597   -0.919849    2.039884
C      2.329603   -0.030637    0.961177
S      1.450331    1.507624    1.118957
O      1.534090    1.889834    2.513823
O      1.914594    2.394209    0.074977
N     -0.152482    1.052519    0.782458
C     -0.462244    0.588621   -0.595032
C     -0.733785   -0.918279   -0.612091
C     -2.010802   -1.366378    0.109733
C     -3.332007   -0.815698   -0.460506
C     -4.504632   -1.302774    0.395310
C     -3.553118   -1.220338   -1.918304
C     -1.195540    1.891333    1.420698
C     -1.345238    3.245202    0.787871
C     -0.570239    4.352325    1.088829
S     -1.017649    5.745653    0.205495
C     -2.277846    4.906055   -0.581843
C     -2.352164    3.591726   -0.178051
C      3.030581   -0.319062   -0.213152
H      4.960084   -3.899292   -1.638088
H      6.068024   -2.835709   -2.534334
H      6.140848   -2.854072   -0.771893
H      4.264818   -3.373064    0.699790
H      3.058004   -2.816940    2.767074
H      1.812317   -0.683362    2.959307
H      0.380438    0.795389   -1.263759
H     -1.307561    1.129771   -1.025902
H      0.109439   -1.448953   -0.156475
H     -0.767267   -1.256461   -1.654028
H     -1.932794   -1.098131    1.170564
H     -2.043567   -2.463782    0.081216
H     -3.324772    0.278114   -0.409316
H     -5.451050   -0.890054    0.029998
H     -4.582698   -2.395224    0.379196
H     -4.383816   -0.985761    1.436643
H     -2.800848   -0.771663   -2.574000
H     -4.532875   -0.880474   -2.271251
H     -3.509356   -2.307855   -2.039987
H     -2.152542    1.359134    1.374234
H     -0.989963    1.994876    2.492634
H      0.255727    4.411658    1.786244
H     -2.905244    5.416572   -1.299450
H     -3.096157    2.904624   -0.562772
H      3.029481    0.387286   -1.042443
