58

C      1.894693    1.744823    1.866905
C      1.054081    0.718238    1.130608
C      1.572743   -0.468167    0.747541
C      2.973443   -0.940777    0.814245
O      3.254288   -2.130869    0.846632
O      3.857497    0.082902    0.745058
C      5.254663   -0.280595    0.740790
C      5.726974   -0.504930    2.178039
C      6.034219    0.825940    0.003658
C      5.983983    2.211430    0.649770
C      7.374921    2.395467    1.210182
C      8.215756    1.603836    0.238891
O      7.424225    0.463301   -0.111982
N     -0.279368    1.090175    0.976438
C     -1.277826    0.685887    0.118904
C     -1.279005   -0.139843   -0.938000
C     -2.425096   -0.392192   -1.793550
C     -3.667845   -0.840824   -1.485381
S     -4.084386   -1.183778    0.185781
C     -4.792328   -2.757341    0.028988
Cl    -3.716874   -4.108636   -0.145236
C     -6.112525   -2.980728    0.163606
C     -7.107281   -1.950229    0.367177
C     -7.497200   -1.074284   -0.572289
C     -7.150427   -1.109519   -2.032544
N     -6.022030   -0.316450   -2.483218
C     -5.999962    1.068809   -2.054914
C     -4.706246   -0.960422   -2.627600
N     -4.724468   -2.390807   -3.138078
O     -4.347516   -2.490745   -4.313117
H      2.380448    2.419854    1.153383
H      2.651881    1.280875    2.507321
H      1.277389    2.354241    2.538419
H      0.919488   -1.243191    0.362324
H      5.404955   -1.212836    0.179403
H      5.184699   -1.340253    2.637410
H      5.527233    0.370281    2.806808
H      6.795267   -0.735734    2.216926
H      5.628830    0.903240   -1.012897
H      5.804263    2.965495   -0.127074
H      5.198702    2.334367    1.400587
H      7.678993    3.443622    1.286123
H      7.431776    1.951494    2.209439
H      9.170010    1.276063    0.664149
H      8.416270    2.174485   -0.675139
H     -0.547127    1.900368    1.534025
H     -2.203374    1.203632    0.369038
H     -0.357711   -0.602069   -1.279893
H     -2.180928   -0.222791   -2.845660
H     -6.488194   -4.000763    0.159898
H     -7.512442   -1.873989    1.374838
H     -8.208090   -0.300218   -0.282970
H     -8.037524   -0.730987   -2.559275
H     -7.095251   -2.147332   -2.380326
H     -5.278175    1.649540   -2.641854
H     -5.745524    1.181750   -0.996038
H     -6.975926    1.540845   -2.216045
H     -4.271044   -0.409664   -3.479258
