57

C     -0.525084    3.308631   -2.179316
C     -0.303554    2.255140   -3.231895
O     -0.085846    2.530746   -4.406655
S     -0.268732    0.587638   -2.684211
C     -1.899924    0.450139   -2.126458
N     -2.891801    1.267027   -2.384244
N     -4.006953    0.773391   -1.761650
C     -3.682032   -0.342974   -1.128527
C     -4.639285   -1.216713   -0.342200
C     -6.047691   -0.577200   -0.354185
C     -4.755685   -2.611904   -0.982468
C     -4.200817   -1.347745    1.127635
N     -2.329516   -0.580286   -1.318614
N     -1.596365   -1.670742   -0.851828
C     -0.615689   -1.557898    0.134026
C      0.323697   -2.745548    0.184863
C     -0.539754   -0.535979    1.013216
C      0.485706   -0.342872    2.076550
O      0.090719   -0.068722    3.210906
C      1.956002   -0.428007    1.703842
C      2.836060    0.788416    1.994059
C      4.176244    0.745972    1.253702
C      4.350634    1.390138    0.012974
C      5.567322    1.325924   -0.671143
C      6.623806    0.612198   -0.122051
F      7.790225    0.546812   -0.778673
C      6.484903   -0.044364    1.092726
C      5.265542    0.018720    1.771138
C      2.843060    1.382627    3.395873
C      2.217756    2.154017    2.270602
H     -1.570277    3.628847   -2.179322
H      0.112523    4.168503   -2.411318
H     -0.247407    2.953215   -1.182315
H     -6.033235    0.431405    0.070808
H     -6.443233   -0.500626   -1.375317
H     -6.758483   -1.171216    0.231307
H     -5.072978   -2.544209   -2.029413
H     -5.491519   -3.230323   -0.453733
H     -3.805155   -3.158281   -0.965320
H     -3.296838   -1.963867    1.234903
H     -3.998273   -0.366315    1.572829
H     -4.979685   -1.836517    1.727757
H     -1.366297   -2.318052   -1.605206
H      0.849949   -2.838945    1.137901
H     -0.237247   -3.678951    0.050967
H      1.064024   -2.673837   -0.619362
H     -1.290781    0.248190    1.031373
H      2.024522   -0.632182    0.628292
H      2.367336   -1.303734    2.222056
H      3.527944    1.952337   -0.424019
H      5.695265    1.830088   -1.623835
H      7.322152   -0.603109    1.505177
H      5.159525   -0.504632    2.722584
H      2.194062    0.957074    4.151186
H      3.774554    1.763325    3.805870
H      2.735807    3.049418    1.941231
H      1.140801    2.275812    2.286968
