42

C     -2.264394   -2.874447   -1.998394
C     -2.399815   -1.993452   -0.754832
C     -3.698500   -1.170985   -0.832038
C     -3.929461   -0.350866    0.388483
C     -4.224572   -0.660407    1.699667
C     -4.333905    0.573126    2.385210
C     -4.103662    1.553782    1.449801
O     -3.850967    1.002468    0.234823
N     -1.229624   -1.134326   -0.617448
C     -0.034188   -1.597341   -0.099601
O      0.106743   -2.748653    0.303096
C      1.054553   -0.614476   -0.107713
C      0.977046    0.754559    0.106153
C     -0.034963    1.706442    0.430066
C      0.291062    3.008343    0.548415
C      1.655914    3.474181    0.365240
C      2.616393    2.575972    0.090696
N      2.277844    1.227828   -0.029368
C      3.072788    0.134587   -0.286313
C      4.614602    0.169918   -0.506442
C      5.446994   -0.977967    0.003173
C      5.518061    0.357090    0.684740
N      2.373284   -0.976996   -0.339098
H     -1.366688   -3.499407   -1.945309
H     -2.187564   -2.266248   -2.906610
H     -3.128746   -3.538472   -2.102764
H     -2.435990   -2.648824    0.124947
H     -4.554665   -1.843961   -0.965135
H     -3.672521   -0.515479   -1.712182
H     -4.343068   -1.653847    2.110248
H     -4.556243    0.728457    3.431498
H     -4.083452    2.633909    1.486790
H     -1.219605   -0.247022   -1.103116
H     -1.056566    1.380749    0.601028
H     -0.464685    3.745584    0.803502
H      1.870253    4.532155    0.469589
H      3.655599    2.846752   -0.043206
H      4.919271    0.610449   -1.449446
H      4.939994   -1.789631    0.514741
H      6.290451   -1.295113   -0.598125
H      6.418673    0.944655    0.552531
H      5.074318    0.436916    1.670849
