45

C      3.235994    1.099818   -2.306222
C      2.886701    0.930935   -0.827727
C      4.061045    0.270153   -0.148232
N      4.474196    0.654088    1.013396
C      1.645435    0.049551   -0.593392
N      1.141961    0.264744    0.795576
N     -0.081304   -0.450953    1.005828
C      0.058077   -1.764906    1.608875
C     -1.112701   -2.708171    1.253518
C     -1.354701   -2.962185   -0.248868
C     -2.151420   -1.878753   -1.000099
C     -1.336659   -0.632135   -1.308483
N     -0.139692   -0.807431   -1.790766
O      0.648768    0.345424   -1.611547
C     -1.969905    0.727676   -0.997474
C     -1.739224    1.367281    0.408997
C     -0.856758    2.629140    0.265141
C     -3.107503    1.868341    0.939908
C     -1.164344    0.395335    1.486812
H      2.470282    1.681130   -2.829869
H      3.333008    0.129817   -2.806722
H      4.189726    1.626767   -2.422803
H      2.732255    1.928626   -0.397647
H      4.536980   -0.587694   -0.655343
H      5.274817    0.081922    1.309472
H      1.942977   -1.004499   -0.700787
H      1.881822    0.050135    1.468430
H      0.148817   -1.681198    2.698836
H      0.978457   -2.248572    1.256213
H     -2.043999   -2.375886    1.725282
H     -0.882361   -3.678058    1.714699
H     -0.399185   -3.166794   -0.745585
H     -1.939638   -3.888468   -0.323718
H     -2.489298   -2.281034   -1.962507
H     -3.044111   -1.607155   -0.427067
H     -3.046715    0.596722   -1.171163
H     -1.652605    1.423655   -1.785319
H     -1.361186    3.391660   -0.340681
H      0.098454    2.429477   -0.221637
H     -0.646610    3.077687    1.242744
H     -3.812154    1.038084    1.064911
H     -2.998454    2.362217    1.912341
H     -3.563372    2.587421    0.249465
H     -1.995582   -0.235043    1.822173
H     -0.850292    0.951129    2.381039
