54

C      7.079677    1.752357   -0.126278
C      7.104755    0.440118    0.652879
C      8.305041    0.419853    1.597895
O      5.935785    0.336669    1.472430
C      4.811860   -0.247368    0.960468
C      3.791059   -0.449165    1.893137
C      2.579480   -1.033163    1.515067
C      2.370828   -1.428392    0.189181
C      1.058822   -2.029362   -0.237006
N      0.191117   -1.014988   -0.788910
C     -1.019424   -1.387751   -1.310843
O     -1.392426   -2.546288   -1.426154
N     -1.757922   -0.291455   -1.673240
C     -3.065564   -0.414905   -2.290267
C     -4.236985   -0.036318   -1.361346
C     -5.546571   -0.191278   -2.172469
C     -4.310187   -0.931813   -0.090427
C     -4.892477    0.006184    0.924076
C     -5.438837   -0.312117    2.156115
C     -5.895276    0.728327    2.967961
C     -5.789837    2.062714    2.545987
C     -5.226642    2.374070    1.306591
C     -4.787021    1.334377    0.503856
C     -4.125900    1.425296   -0.837430
C      3.389217   -1.209396   -0.747722
C      4.602487   -0.625355   -0.364361
H      6.219029    1.797583   -0.800823
H      7.989664    1.875263   -0.722399
H      6.987355    2.608068    0.552340
H      7.207766   -0.418334   -0.020581
H      8.322328   -0.513631    2.171182
H      8.245270    1.234493    2.327601
H      9.246607    0.508780    1.047800
H      3.942917   -0.148578    2.927501
H      1.803387   -1.175757    2.264271
H      0.548798   -2.497033    0.613991
H      1.218451   -2.815831   -0.984670
H      0.180643   -0.133706   -0.297914
H     -1.228460    0.548333   -1.857368
H     -3.196963   -1.437075   -2.664122
H     -3.053241    0.247939   -3.163907
H     -6.429795    0.065357   -1.577880
H     -5.540856    0.460002   -3.053843
H     -5.671099   -1.222306   -2.521616
H     -4.944013   -1.811720   -0.239274
H     -3.325947   -1.252777    0.261930
H     -5.510023   -1.343489    2.486417
H     -6.331628    0.503587    3.938128
H     -6.146167    2.860544    3.193157
H     -5.137579    3.406819    0.985813
H     -3.088116    1.744777   -0.697591
H     -4.635911    2.139284   -1.492073
H      3.239419   -1.489799   -1.788812
H      5.353103   -0.471644   -1.131535
