47

C     -1.595037   -3.121292   -1.871754
C     -1.468108   -2.319574   -0.577148
C     -1.044753   -3.215952    0.586620
N     -0.571561   -1.174196   -0.735706
C      0.774554   -1.265697   -1.056527
O      1.468911   -2.268396   -1.003931
C      1.205405    0.136053   -1.495378
N      2.374330    0.599336   -0.821124
C      3.627869    0.358328   -1.331179
O      3.836578   -0.041169   -2.470596
C      4.744069    0.623469   -0.367275
C      6.061784    0.442323   -0.767412
C      7.067798    0.694404    0.160023
C      6.724279    1.113435    1.442237
C      5.380785    1.265253    1.752653
N      4.375578    1.030804    0.882102
O      0.119040    0.970997   -1.100619
C     -1.042958    0.139809   -1.060904
C     -2.008052    0.708803   -0.048467
C     -1.629845    0.893491    1.289473
C     -2.530649    1.420444    2.214315
C     -3.825372    1.764518    1.819524
C     -4.225471    1.576253    0.496613
O     -5.456149    1.868313   -0.021322
C     -6.493992    2.116417    0.911645
F     -7.656331    2.183731    0.213883
F     -6.308527    3.335765    1.473967
C     -3.312510    1.060790   -0.430447
H     -2.328796   -3.926245   -1.758684
H     -0.641786   -3.573921   -2.163965
H     -1.923078   -2.478522   -2.695755
H     -2.461257   -1.928127   -0.328736
H     -0.091480   -3.717902    0.395062
H     -0.935039   -2.630738    1.506071
H     -1.796510   -3.991640    0.767593
H      1.318363    0.162534   -2.584381
H      2.322479    0.808665    0.169296
H      6.297134    0.111591   -1.773857
H      8.110846    0.563419   -0.115162
H      7.488437    1.316415    2.185147
H      5.072011    1.589771    2.742777
H     -1.481273    0.115252   -2.066612
H     -0.622328    0.635499    1.611230
H     -2.218046    1.574471    3.244595
H     -4.482356    2.198514    2.567255
H     -6.588186    1.339916    1.678827
H     -3.630795    0.934589   -1.463967
