54

C     -3.783087   -1.954884   -0.522955
C     -3.183656   -1.781284    0.872012
C     -1.754233   -2.311840    0.912919
C     -3.342321   -0.346067    1.420409
C     -2.846354    0.842963    0.553709
C     -1.312134    1.000992    0.592898
C     -0.678189    0.835653   -0.798392
C      0.747605    0.294869   -0.743697
C      1.134881   -0.725019   -1.631196
C      2.428378   -1.251077   -1.595176
C      3.351054   -0.769266   -0.664766
C      4.725872   -1.323931   -0.665237
O      5.304847   -1.407434   -1.746348
N      5.303685   -1.710836    0.543769
C      6.706138   -2.089098    0.540599
C      4.558139   -2.029375    1.753345
C      2.995868    0.273456    0.195425
C      1.700122    0.795562    0.160808
S     -0.639290    2.352247   -1.784591
O     -0.495227    1.953935   -3.174948
O      0.296725    3.292481   -1.195478
C     -2.262331    3.080893   -1.662966
C     -2.477229    3.839850   -0.371687
C     -3.585206    3.306038    0.494614
O     -4.538034    4.019396    0.810058
N     -3.532026    2.054271    1.019346
H     -3.194745   -1.439184   -1.287624
H     -3.816668   -3.015473   -0.795561
H     -4.807523   -1.570087   -0.558699
H     -3.765532   -2.423156    1.548436
H     -1.297313   -2.141327    1.892849
H     -1.126561   -1.851583    0.148653
H     -1.744669   -3.391897    0.728131
H     -2.891541   -0.283535    2.420192
H     -4.421336   -0.213706    1.589206
H     -3.204980    0.694220   -0.467391
H     -0.899240    0.242505    1.268090
H     -1.015296    1.954538    1.042350
H     -1.281250    0.130954   -1.384338
H      0.438301   -1.110938   -2.373967
H      2.721061   -2.026868   -2.299641
H      7.174864   -1.733566    1.462973
H      7.236775   -1.657050   -0.312375
H      6.775512   -3.179757    0.488544
H      3.478077   -1.975311    1.609333
H      4.802369   -3.051728    2.058987
H      4.861782   -1.335017    2.541709
H      3.729213    0.695995    0.877649
H      1.455844    1.619511    0.829357
H     -3.010952    2.315249   -1.876180
H     -2.301713    3.793686   -2.496905
H     -1.583504    3.937077    0.250424
H     -2.764424    4.868206   -0.630598
H     -4.370548    1.905745    1.575181
