46

C      3.741276   -2.627559    0.172307
C      2.963710   -2.042549   -1.013585
C      3.323984   -0.612715   -1.412374
C      3.722983    0.345460   -0.481203
C      3.996221    1.642319   -0.909223
C      3.873497    1.952892   -2.255868
C      3.468381    0.952342   -3.120347
N      3.190147   -0.311646   -2.733062
N      1.500044   -2.227691   -0.902773
C      0.836980   -2.777653   -2.076482
C      0.807046   -1.551665    0.111331
O      1.393489   -1.066082    1.080798
C     -0.727692   -1.456217   -0.047800
N     -1.335752   -0.377415    0.767999
C     -0.925102    0.954080    0.288781
C     -1.449988    2.053609    1.222527
C     -2.923069    1.911794    1.508488
C     -3.653194    2.992347    2.023629
C     -5.008936    2.850059    2.319933
C     -5.643441    1.626407    2.114354
C     -4.920993    0.542972    1.614587
C     -3.554422    0.671377    1.314674
C     -2.805678   -0.497884    0.712047
H      4.820105   -2.560983   -0.008142
H      3.540105   -2.125532    1.120969
H      3.488102   -3.686150    0.306047
H      3.286442   -2.662005   -1.861035
H      3.804746    0.100627    0.574132
H      4.287563    2.403207   -0.190410
H      4.074930    2.953343   -2.620254
H      3.333754    1.152144   -4.178713
H      0.709543   -1.985518   -2.817829
H     -0.139866   -3.189724   -1.817092
H      1.432581   -3.593257   -2.499910
H     -1.125423   -2.426905    0.270423
H     -0.988421   -1.292134   -1.098763
H     -1.289454    1.124451   -0.733849
H      0.165921    1.048482    0.256215
H     -0.911539    2.016214    2.178380
H     -1.251939    3.029728    0.763205
H     -3.166177    3.949063    2.197653
H     -5.569393    3.692771    2.715789
H     -6.699874    1.516179    2.347154
H     -5.429785   -0.406014    1.455998
H     -3.098604   -1.408741    1.248861
H     -3.142809   -0.595831   -0.328338
