33

C      4.873084    0.134618    1.054368
C      4.569012    0.901853   -0.232842
C      5.399347    0.355733   -1.394821
C      3.098926    0.826725   -0.555230
N      2.445062   -0.291280   -0.796726
C      1.101647   -0.027923   -1.037193
C      0.190442   -1.172567   -1.336748
N     -0.922867   -1.215060   -0.408263
N     -0.935888   -2.036168    0.654123
N     -2.119379   -1.840911    1.217894
C     -2.790004   -0.909710    0.448332
C     -4.146169   -0.445269    0.776559
N     -4.742967   -0.975631    1.866630
C     -5.982381   -0.533211    2.145845
C     -6.641979    0.406048    1.389616
C     -5.952082    0.885412    0.301709
N     -4.711791    0.482808   -0.028666
N     -2.052795   -0.506413   -0.611780
C      0.772690    1.316057   -1.007733
S      2.151034    2.258999   -0.634201
H      5.934375    0.215484    1.312556
H      4.629908   -0.929648    0.957308
H      4.291712    0.532473    1.893705
H      4.862921    1.947582   -0.075201
H      6.469946    0.440514   -1.179946
H      5.177095   -0.699758   -1.589114
H      5.196416    0.912565   -2.316509
H     -0.221830   -1.084515   -2.347797
H      0.719829   -2.129074   -1.267718
H     -6.443848   -0.972224    3.026000
H     -7.638573    0.745636    1.634684
H     -6.388561    1.630400   -0.357518
H     -0.192332    1.776458   -1.174009
