47

C     -6.728332    2.091984   -0.556565
C     -6.505646    0.942776    0.427875
C     -7.441074   -0.230020    0.132869
C     -5.062845    0.501813    0.486234
N     -4.359737    0.493030    1.600846
C     -3.082123    0.020382    1.355308
C     -2.063552   -0.140927    2.310141
C     -0.813450   -0.636408    1.916709
C     -0.556159   -0.975079    0.587416
N      0.733653   -1.462064    0.295820
C      1.218715   -1.904750   -0.925430
O      0.569800   -2.035147   -1.962977
C      2.679776   -2.352635   -0.864622
N      3.538323   -1.292308   -0.399542
C      3.793628   -0.998312    0.954225
O      3.291840   -1.573722    1.911300
N      4.666155    0.102247    0.966539
C      5.163777    0.764719    2.137146
C      4.889488    0.517537   -0.355499
C      5.632224    1.571322   -0.843769
C      5.648615    1.751911   -2.232399
C      4.929488    0.890560   -3.086827
C      4.181346   -0.174897   -2.573361
C      4.181845   -0.341426   -1.203026
C     -1.558444   -0.814671   -0.374369
C     -2.812811   -0.321036    0.031649
S     -4.222082   -0.037826   -0.916110
H     -7.758846    2.458881   -0.492578
H     -6.550832    1.784784   -1.594155
H     -6.060587    2.932525   -0.335926
H     -6.765654    1.322945    1.426656
H     -7.266441   -0.650970   -0.864341
H     -8.486670    0.090496    0.180787
H     -7.302105   -1.035615    0.863597
H     -2.257156    0.116734    3.344897
H     -0.044495   -0.754090    2.676277
H      1.380836   -1.519590    1.079523
H      2.744828   -3.199871   -0.171679
H      3.005426   -2.695900   -1.851717
H      4.900282    0.193305    3.031195
H      6.255461    0.844732    2.074580
H      4.719414    1.763180    2.208051
H      6.179211    2.240513   -0.190708
H      6.220932    2.572265   -2.661097
H      4.953610    1.060619   -4.162501
H      3.623605   -0.825207   -3.237458
H     -1.403237   -1.056790   -1.417321
