45

C      5.711072    0.944870   -0.630981
C      4.517432   -0.001342   -0.451416
C      4.844697   -1.064376    0.613820
O      5.148647   -0.485471    1.875054
C      3.202404    0.753354   -0.114087
C      2.930542    1.929393   -1.059864
N      2.065832   -0.168216   -0.172538
C      0.911093    0.076287    0.528137
O      0.758654    1.009206    1.304431
N     -0.044137   -0.877912    0.278220
C     -1.374259   -0.753946    0.843466
C     -2.140372   -2.081123    0.818968
C     -3.397169   -1.818728   -0.004728
C     -3.661833   -0.317706    0.173880
N     -4.603488    0.237205   -0.813539
C     -4.736924    1.691560   -0.672887
C     -5.929247   -0.379810   -0.702707
C     -2.238164    0.243091    0.062651
H      5.602143    1.549514   -1.536973
H      6.643729    0.379899   -0.735965
H      5.818318    1.624434    0.220865
H      4.374999   -0.533986   -1.401909
H      5.703700   -1.669307    0.302019
H      4.004833   -1.752136    0.753639
H      6.020846   -0.062079    1.812212
H      3.261412    1.152860    0.906162
H      3.685472    2.713997   -0.952659
H      1.958240    2.389192   -0.851094
H      2.917969    1.598968   -2.104403
H      1.986403   -0.760993   -0.982469
H      0.048546   -1.402175   -0.576709
H     -1.274488   -0.417415    1.883281
H     -2.424901   -2.354026    1.842579
H     -1.562362   -2.915825    0.408596
H     -4.229024   -2.442671    0.336686
H     -3.203369   -2.057675   -1.058331
H     -4.034825   -0.139414    1.193110
H     -3.790269    2.199539   -0.882808
H     -5.074224    1.978977    0.329522
H     -5.454496    2.085427   -1.402087
H     -5.889806   -1.449594   -0.931033
H     -6.620009    0.055861   -1.434011
H     -6.361597   -0.250760    0.296106
H     -2.149543    1.251621    0.480626
H     -1.922476    0.291428   -0.988372
