49

C      2.048122    1.105247    1.471085
C      1.901689   -0.417290    1.435436
C      2.847834   -1.064496    0.422433
O      3.564722   -2.011581    0.737476
N      2.799694   -0.560841   -0.853448
C      3.735981   -0.987110   -1.869361
C      4.823848    0.017236   -1.938241
C      6.060842    0.114719   -1.335821
C      6.633239    1.325837   -1.792936
C      5.707455    1.892411   -2.637590
O      4.602664    1.108476   -2.729098
C      0.449780   -0.944038    1.284843
C     -0.248435   -0.541289   -0.028927
C     -1.763988   -0.703839    0.065405
N     -2.329898    0.130247    1.127823
C     -3.552897    0.793322    1.039182
O     -3.871744    1.721263    1.779140
C     -4.530539    0.368195    0.011717
C     -5.117877    1.344112   -0.802677
C     -6.054265    0.972835   -1.768168
C     -6.413544   -0.369095   -1.907547
C     -5.846001   -1.332506   -1.072336
Cl    -6.300689   -2.984087   -1.243886
C     -4.910885   -0.972205   -0.104845
C     -1.447822    0.489394    2.233937
C     -0.419064   -0.599772    2.516615
H      3.105163    1.385400    1.542882
H      1.647330    1.593751    0.578998
H      1.536771    1.527934    2.341599
H      2.271186   -0.770355    2.410564
H      2.339002    0.321429   -1.024341
H      4.131618   -1.982421   -1.646457
H      3.192467   -1.034663   -2.817987
H      6.486040   -0.603425   -0.645952
H      7.599224    1.736166   -1.533654
H      5.684058    2.803139   -3.220197
H      0.527088   -2.041656    1.269427
H      0.125521   -1.160603   -0.852193
H     -0.030003    0.500036   -0.287836
H     -2.017279   -1.745190    0.293317
H     -2.213859   -0.445012   -0.897738
H     -4.846214    2.391353   -0.680008
H     -6.504410    1.727624   -2.407460
H     -7.143686   -0.656892   -2.660267
H     -4.491257   -1.721773    0.559396
H     -2.048895    0.674758    3.131628
H     -0.955683    1.432884    1.970951
H      0.197593   -0.320084    3.377516
H     -0.959998   -1.507546    2.815722
