66

C     -4.619870    4.123395   -1.574972
C     -5.098583    2.787091   -1.077527
C     -6.178695    2.149642   -1.908873
C     -4.585317    2.252933    0.047873
C     -5.030860    0.962428    0.620903
O     -5.787942    0.982506    1.588320
N     -4.528477   -0.201146    0.055143
C     -4.960788   -1.475864    0.630901
C     -6.380628   -1.875506    0.222563
C     -6.501888   -2.200111   -1.259831
O     -7.830924   -2.604819   -1.568874
C     -3.506957   -0.247729   -0.994948
C     -2.106170   -0.482156   -0.494268
C     -1.644650   -0.072139    0.753663
C     -0.306622   -0.274556    1.099047
C      0.570333   -0.870121    0.191596
N      1.925622   -1.053487    0.556410
C      2.616304    0.235916    0.719546
C      4.028439    0.002507    1.262257
C      4.824452   -0.955171    0.359534
C      6.219931   -1.268247    0.932613
C      7.151103   -0.079159    0.952258
C      7.626256    0.474094   -0.245745
C      8.486216    1.573223   -0.227386
C      8.884410    2.127560    0.986879
C      8.424546    1.582432    2.184197
C      7.562089    0.483944    2.167948
C      4.027166   -2.256915    0.173468
C      2.620430   -1.975769   -0.355971
N      0.128326   -1.283894   -1.015846
C     -1.171170   -1.078258   -1.331408
H     -5.458911    4.822832   -1.651566
H     -4.156013    4.017480   -2.562421
H     -3.876910    4.571667   -0.905098
H     -5.781912    1.869074   -2.890264
H     -6.603440    1.254459   -1.446163
H     -7.003289    2.855119   -2.064151
H     -3.848242    2.775747    0.648696
H     -4.249839   -2.264188    0.357074
H     -4.923408   -1.382592    1.723206
H     -6.684097   -2.755596    0.804032
H     -7.101726   -1.089918    0.479894
H     -6.274032   -1.326442   -1.877946
H     -5.821891   -3.009746   -1.544438
H     -8.063221   -3.343391   -0.979482
H     -3.794749   -1.053041   -1.682384
H     -3.501030    0.675571   -1.579528
H     -2.306982    0.400268    1.473419
H      0.043960    0.021422    2.082986
H      2.091611    0.890383    1.425451
H      2.671448    0.764061   -0.242475
H      4.539258    0.968820    1.340988
H      3.962935   -0.411971    2.276565
H      4.934494   -0.483277   -0.626668
H      6.700881   -2.055112    0.335813
H      6.121181   -1.683134    1.944246
H      7.330397    0.050866   -1.202608
H      8.847925    1.995445   -1.161706
H      9.557989    2.980415    1.000441
H      8.740550    2.011701    3.131557
H      7.215097    0.071444    3.112861
H      3.956934   -2.790404    1.131125
H      4.549178   -2.919095   -0.527853
H      2.690889   -1.554101   -1.368325
H      2.084612   -2.932056   -0.417670
H     -1.445735   -1.425331   -2.325626
