41

C      5.656940   -0.486316   -0.456955
C      5.065105    0.389094    0.648544
C      5.013774    1.857231    0.221894
N      3.774082   -0.107004    1.147558
C      2.700394   -0.170691    0.148392
C      1.428241   -0.717579    0.792785
C      0.303404   -0.783054   -0.209574
O      0.404344   -0.537518   -1.403702
O     -0.835531   -1.182323    0.422166
C     -2.032641   -1.100079   -0.368189
C     -3.005135   -2.158115    0.165230
C     -4.404346   -2.095150   -0.462921
C     -4.702067   -0.820121   -1.260399
C     -4.017798    0.384287   -0.681807
C     -4.632596    1.633187   -0.611485
C     -3.923574    2.711887   -0.094535
C     -2.619984    2.503474    0.325471
N     -1.988965    1.311493    0.262240
C     -2.692526    0.267699   -0.245965
H      6.690697   -0.188395   -0.664851
H      5.097491   -0.402184   -1.394290
H      5.672362   -1.539973   -0.157653
H      5.754894    0.327973    1.499956
H      6.023231    2.228293    0.012653
H      4.591402    2.483037    1.015595
H      4.415979    2.001795   -0.683806
H      3.472936    0.486095    1.921827
H      2.984659   -0.828392   -0.680145
H      2.496180    0.822878   -0.265967
H      1.115331   -0.064842    1.616219
H      1.602634   -1.727738    1.180473
H     -1.825166   -1.310899   -1.425329
H     -2.578027   -3.159839    0.030429
H     -3.103277   -2.040875    1.254146
H     -4.559377   -2.963997   -1.114176
H     -5.142903   -2.193994    0.343501
H     -5.787292   -0.670764   -1.305074
H     -4.355867   -0.943571   -2.294438
H     -5.653663    1.772052   -0.955817
H     -4.374843    3.695152   -0.024175
H     -2.028503    3.317786    0.733927
