28

C      3.653540   -1.027561   -0.538452
C      3.836094    0.458731   -0.338530
C      5.136272    1.045791   -0.833706
N      2.993910    1.268409    0.236068
N      1.753556    0.802235    0.583776
C      0.847637    0.379204   -0.384911
O      1.103762    0.134777   -1.558256
C     -0.532949    0.254345    0.160866
C     -1.550524   -0.035501   -0.665209
C     -2.946242   -0.175116   -0.234713
C     -3.316697   -0.750617    0.983702
C     -4.666046   -0.877524    1.311536
C     -5.610080   -0.432252    0.401671
N     -5.298059    0.115093   -0.790882
C     -3.978881    0.223684   -1.082172
H      3.376352   -1.222193   -1.577579
H      2.900535   -1.444445    0.132937
H      4.601065   -1.535236   -0.333475
H      5.139191    2.133480   -0.721717
H      5.964688    0.624428   -0.257885
H      5.267344    0.795060   -1.889833
H      1.358553    1.305105    1.372211
H     -0.677496    0.406068    1.222440
H     -1.368554   -0.158854   -1.732703
H     -2.569599   -1.119325    1.680717
H     -4.973254   -1.321238    2.251989
H     -6.672920   -0.511136    0.611882
H     -3.771199    0.664590   -2.054349
