39

C      4.928855    0.044454   -0.081511
C      3.422444   -0.011674    0.184313
C      2.803110    1.386942    0.412610
C      3.365500    2.137188    1.616009
O      4.620935    2.717266    1.293602
C      2.730919   -0.723373   -0.994326
N      1.337421   -1.002015   -0.736733
C      0.906231   -2.083289   -0.004222
O      1.641662   -2.955011    0.445577
C     -0.544130   -2.079522    0.194387
C     -1.251420   -3.068737    0.849356
S     -2.920089   -2.684700    0.858223
C     -2.592099   -1.232706    0.003730
N     -3.651372   -0.405907   -0.313948
C     -5.055496   -0.615870   -0.069459
C     -5.675804    0.744941   -0.304342
C     -4.786292    1.355958   -1.370917
C     -3.434185    0.740591   -1.088510
O     -2.393256    1.203451   -1.529551
N     -1.329541   -1.029571   -0.281174
H      5.318047   -0.948678   -0.331486
H      5.476452    0.384142    0.802390
H      5.160917    0.717194   -0.913831
H      3.264932   -0.608009    1.092730
H      1.724927    1.269526    0.574651
H      2.933624    1.993679   -0.492221
H      3.484166    1.475680    2.479933
H      2.687128    2.951512    1.890669
H      4.930774    3.184422    2.088134
H      3.229902   -1.676687   -1.204180
H      2.778770   -0.112186   -1.902287
H      0.619802   -0.329298   -1.004583
H     -0.867573   -3.971987    1.303413
H     -5.244432   -0.959990    0.951602
H     -5.429590   -1.352605   -0.789161
H     -6.726459    0.689170   -0.602111
H     -5.615242    1.345421    0.612048
H     -5.103098    1.065513   -2.377385
H     -4.746441    2.444765   -1.287026
