35

C     -1.862803   -2.763792   -0.246055
C     -1.456673   -1.386323   -0.782699
C      0.050469   -1.145917   -0.542999
C      0.552569    0.174301   -1.145474
C      2.064368    0.350185   -0.991737
C      2.511063    0.671226    0.430374
O      1.708473    0.830024    1.347401
C      3.935655    0.793344    0.671200
C      4.523325    1.071795    1.882633
O      5.871028    1.111635    1.744837
N      6.202741    0.857989    0.423176
C      5.037316    0.672174   -0.201171
C     -2.361176   -0.317455   -0.192263
C     -3.375301    0.246410   -0.982320
C     -4.225614    1.224190   -0.462000
C     -4.076405    1.649222    0.855683
C     -3.079300    1.094579    1.654198
C     -2.229432    0.115207    1.135908
H     -1.272160   -3.554313   -0.721420
H     -1.711645   -2.837019    0.836808
H     -2.919820   -2.969424   -0.449384
H     -1.607550   -1.405208   -1.870879
H      0.610992   -1.972147   -1.000176
H      0.277038   -1.183172    0.528338
H      0.035685    1.027124   -0.691613
H      0.310927    0.186698   -2.215449
H      2.381772    1.185123   -1.628114
H      2.580162   -0.554801   -1.332260
H      4.144999    1.256978    2.877863
H      5.052523    0.457865   -1.260742
H     -3.511892   -0.073489   -2.012840
H     -5.005170    1.653124   -1.085849
H     -4.736799    2.410887    1.260938
H     -2.959620    1.424040    2.682991
H     -1.459744   -0.301060    1.781982
