33

C      4.155760    0.230588   -1.579525
C      4.343978    0.172283   -0.081470
C      5.322944    1.148393    0.521109
N      3.709095   -0.627067    0.725435
N      2.776396   -1.451834    0.152244
C      1.433088   -1.000404    0.141442
N      1.147197    0.297500   -0.060069
C     -0.153736    0.638663   -0.055526
C     -1.191451   -0.253354    0.131367
C     -2.586092    0.188147    0.125317
C     -3.190206    0.667466    1.299022
C     -4.523642    1.086688    1.294964
C     -5.263016    1.031946    0.115930
Cl    -6.903737    1.547134    0.110517
C     -4.680514    0.562861   -1.059045
C     -3.347077    0.143689   -1.054279
C     -0.789503   -1.572127    0.320519
N     -1.729479   -2.597497    0.530417
N      0.499112   -1.946440    0.323589
H      3.916921   -0.752005   -1.992737
H      5.077441    0.581627   -2.052620
H      3.353009    0.934347   -1.814103
H      6.317639    0.967053    0.105167
H      5.364371    1.036167    1.607963
H      5.010992    2.167722    0.278035
H      2.685658   -2.363080    0.604334
H     -0.342971    1.697269   -0.214323
H     -2.623534    0.718532    2.227968
H     -4.976221    1.455394    2.212087
H     -5.255591    0.523351   -1.980777
H     -2.903267   -0.215396   -1.981921
H     -2.282594   -2.382104    1.355553
H     -2.370972   -2.635510   -0.256584
