37

C     -0.416789    0.089465    1.189624
C     -0.400747   -0.598147   -0.178268
C      0.640054   -1.738081   -0.193417
N      2.002208   -1.267508   -0.023227
C      2.718787   -0.719205   -1.073738
O      2.238536   -0.663435   -2.203774
C      4.042108   -0.216889   -0.721107
C      4.803348   -0.405064    0.423191
C      6.059864    0.273450    0.367079
C      6.206542    0.944353   -0.818429
Br     7.757114    1.968485   -1.264203
S      4.881354    0.772560   -1.853726
C     -1.776021   -1.187790   -0.580545
N     -2.921893   -0.302613   -0.737040
C     -2.706653    0.949712   -1.444258
C     -4.063187    1.613201   -1.294791
C     -4.491989    1.241322    0.117615
C     -3.721073   -0.034179    0.449909
H      0.583084    0.432498    1.474960
H     -0.774104   -0.590265    1.970272
H     -1.057131    0.975788    1.182453
H     -0.101287    0.145484   -0.927231
H      0.589317   -2.285788   -1.141764
H      0.444389   -2.452370    0.614275
H      2.353620   -1.170310    0.917133
H      4.495661   -1.010039    1.266503
H      6.804691    0.257074    1.153359
H     -2.041343   -1.998701    0.111365
H     -1.644136   -1.683323   -1.552054
H     -1.938749    1.573374   -0.974181
H     -2.448521    0.796242   -2.496382
H     -4.773714    1.198809   -2.020943
H     -4.019672    2.696322   -1.442459
H     -4.213002    2.039176    0.815776
H     -5.575562    1.099325    0.179692
H     -3.126424    0.121458    1.354063
H     -4.408681   -0.864392    0.642979
