41

C     -1.311666    1.315996   -1.965397
C     -1.196880    1.684271   -0.491431
C     -2.302996    1.161797    0.444841
C     -2.310328   -0.313984    0.847038
C     -3.004325   -1.199048   -0.145401
C     -4.503321   -1.355075   -0.133834
N     -3.630567   -2.438775    0.310261
C      0.206586    1.651376    0.135919
O      0.589296    2.677341    0.716273
N      1.013084    0.516759    0.123454
C      0.838713   -0.617130   -0.784861
C      1.414432   -1.922577   -0.244885
C      2.856107   -1.761460    0.209527
C      2.948099   -0.630777    1.224404
C      2.373714    0.689000    0.683833
C      3.322300    1.378949   -0.323942
O      4.567707    1.717513    0.279797
H     -0.416449    1.624691   -2.515735
H     -1.469033    0.255457   -2.151349
H     -2.168623    1.832994   -2.413125
H     -1.394170    2.770724   -0.522503
H     -3.279834    1.430345    0.021938
H     -2.215394    1.734562    1.379260
H     -2.836462   -0.384449    1.809257
H     -1.300701   -0.682085    1.043736
H     -2.491063   -1.285831   -1.091821
H     -5.086338   -0.857043    0.630521
H     -5.007285   -1.510542   -1.079866
H     -3.630957   -2.509562    1.329847
H     -0.214790   -0.787277   -0.977418
H      1.311420   -0.352090   -1.737527
H      0.807013   -2.259847    0.604668
H      1.348949   -2.701656   -1.012556
H      3.502916   -1.559104   -0.651378
H      3.208539   -2.695257    0.661755
H      3.987297   -0.502064    1.547032
H      2.379011   -0.919728    2.118192
H      2.304196    1.352303    1.556701
H      3.529434    0.731557   -1.181511
H      2.880828    2.299858   -0.719710
H      4.381539    2.419865    0.928930
