48

C     -0.134411    2.646285    0.471168
C     -0.896672    1.451492   -0.128361
N     -0.048669    0.692914   -1.074906
C      1.049543   -0.095777   -0.496193
C      0.649404   -1.589221   -0.464482
S      2.035350   -2.775485   -0.329677
C      3.315989   -1.651316    0.288532
C      3.601952   -0.461373   -0.656547
C      4.264256    0.654868    0.179952
C      4.602508   -0.882840   -1.751794
C      2.324472    0.102861   -1.340878
C     -1.634161    0.593252    0.898527
C     -1.048265    0.316200    2.152947
C     -1.699251   -0.467759    3.105409
C     -2.952796   -0.992335    2.826914
C     -3.557573   -0.725490    1.599185
C     -2.924433    0.070334    0.624296
N     -3.549323    0.339768   -0.616236
C     -3.332942   -0.760441   -1.560787
C     -4.939824    0.783163   -0.519600
H     -0.794763    3.243749    1.110104
H      0.236276    3.303571   -0.324025
H      0.728732    2.347932    1.073857
H     -1.665016    1.926848   -0.751485
H      0.304566    1.350283   -1.767372
H      1.277784    0.241990    0.518932
H     -0.040443   -1.787018    0.360902
H      0.120449   -1.858390   -1.386363
H      2.985173   -1.301224    1.273614
H      4.227882   -2.233328    0.464209
H      4.554357    1.504895   -0.448055
H      3.584363    1.030321    0.952730
H      5.168604    0.289421    0.679874
H      4.836413   -0.042718   -2.415735
H      5.545018   -1.232970   -1.315815
H      4.202040   -1.693043   -2.370762
H      2.476628    1.170440   -1.551719
H      2.175420   -0.371316   -2.321593
H     -0.065298    0.704987    2.403170
H     -1.222844   -0.671275    4.060602
H     -3.461864   -1.611242    3.560279
H     -4.532795   -1.160957    1.402325
H     -2.270867   -1.002271   -1.666763
H     -3.868881   -1.666359   -1.253927
H     -3.697173   -0.472174   -2.553034
H     -5.259728    1.190828   -1.484971
H     -5.621422   -0.035370   -0.263473
H     -5.047764    1.585290    0.219450
