61

C     -5.120605    5.216362    0.042603
C     -4.712794    4.090701   -0.902838
N     -5.706985    3.971737   -1.972374
C     -4.573572    2.792078   -0.146456
F     -5.691868    2.266799    0.411309
C     -3.412756    2.129336   -0.010228
C     -3.293677    0.884630    0.724255
C     -2.195581    0.118967    0.869281
N     -0.966006    0.415055    0.319058
C      0.220984   -0.240651    0.565393
O      0.386128   -1.170557    1.340884
N      1.237316    0.290659   -0.208069
C      2.563386   -0.312816   -0.128143
C      3.704741    0.499098   -0.817072
C      3.368154    0.659595   -2.318668
C      3.775530    1.895820   -0.157866
C      5.086860   -0.186898   -0.692006
C      6.230118    0.416590   -1.256529
C      7.492231   -0.177393   -1.169603
C      7.646020   -1.391887   -0.512186
C      6.538119   -2.008291    0.058766
C      5.273858   -1.413110   -0.028999
C     -2.405601   -1.110185    1.707450
N     -2.617293   -0.963799    2.986785
N     -2.796333   -2.081976    3.740984
C     -2.757595   -3.377426    3.288637
O     -2.899403   -4.339133    4.037211
C     -2.566417   -3.555390    1.839878
C     -2.576620   -4.840766    1.282582
C     -2.431160   -5.001413   -0.095216
C     -2.282300   -3.882131   -0.912646
C     -2.271511   -2.599612   -0.355211
C     -2.403124   -2.432783    1.031156
H     -4.375375    5.350844    0.833773
H     -5.205273    6.167097   -0.495656
H     -6.084140    5.015436    0.524975
H     -3.757232    4.361218   -1.367402
H     -5.482077    3.168410   -2.556336
H     -6.616073    3.765712   -1.554916
H     -2.523193    2.550880   -0.464531
H     -4.212225    0.555137    1.215998
H     -0.863822    1.305223   -0.140116
H      0.930860    0.561023   -1.130382
H      2.474108   -1.311684   -0.576785
H      2.791188   -0.450160    0.937486
H      4.132895    1.229089   -2.858717
H      3.284713   -0.317977   -2.807691
H      2.426476    1.195070   -2.471624
H      2.816050    2.421639   -0.220383
H      4.517690    2.543267   -0.637178
H      4.045159    1.816312    0.901304
H      6.155285    1.368896   -1.777637
H      8.354299    0.311909   -1.615942
H      8.625422   -1.855638   -0.442286
H      6.653273   -2.957105    0.578004
H      4.450662   -1.944812    0.441575
H     -2.914250   -1.939998    4.739042
H     -2.700572   -5.713417    1.920834
H     -2.438121   -5.998701   -0.528875
H     -2.171839   -4.008498   -1.987472
H     -2.156132   -1.750379   -1.021186
