49

C     -1.037076    1.637770   -1.688234
C     -1.363282    0.941061   -0.371904
N     -2.637307    0.240618   -0.451879
C     -3.835560    0.895141   -0.284547
O     -3.937866    2.108939   -0.164754
C     -5.028574    0.017710   -0.294190
C     -5.221105   -0.842319   -1.383845
C     -6.354079   -1.651749   -1.425293
Br    -6.623588   -2.811321   -2.893716
C     -7.294296   -1.611898   -0.395381
C     -7.101940   -0.754803    0.691163
C     -5.968911    0.059061    0.741058
O     -5.767231    0.863341    1.825606
C     -0.273611   -0.089836   -0.020422
O     -0.484449   -1.302278   -0.055401
N      0.945576    0.457213    0.325648
C      2.130416   -0.367645    0.575306
C      2.798793   -0.726380   -0.763216
C      3.627278    0.394594   -1.398549
C      5.141065    0.227059   -1.250323
C      5.716297    0.380901    0.159678
C      5.344006   -0.744900    1.124485
C      4.224796   -0.421024    2.114467
C      3.014167    0.353486    1.600293
H     -1.820495    2.350844   -1.964870
H     -0.091234    2.185560   -1.627705
H     -0.946271    0.911674   -2.504310
H     -1.422691    1.674612    0.440786
H     -2.597415   -0.774276   -0.404772
H     -4.500839   -0.860753   -2.197702
H     -8.177766   -2.245071   -0.428501
H     -7.836672   -0.743248    1.491148
H     -6.578470    0.907570    2.356633
H      1.077117    1.454931    0.214894
H      1.776180   -1.303760    1.025829
H      3.398770   -1.634737   -0.652802
H      2.011381   -1.003812   -1.477669
H      3.313972    1.383929   -1.048384
H      3.416666    0.385544   -2.476568
H      5.619178    0.984759   -1.884909
H      5.443386   -0.743210   -1.664401
H      6.809341    0.368846    0.051318
H      5.474253    1.365742    0.573366
H      6.232827   -0.982315    1.725241
H      5.123740   -1.670361    0.583469
H      4.664891    0.173528    2.926519
H      3.888365   -1.355150    2.581330
H      3.320248    1.337570    1.228127
H      2.388022    0.578842    2.476007
