54

C     -3.444832   -1.524006    2.448988
C     -2.668091   -0.850822    1.307019
N     -1.967678   -1.850617    0.502528
C     -0.629484   -1.507057   -0.002665
C      0.425431   -1.528096    1.122659
C      1.740934   -0.923593    0.639365
C      1.599082    0.563067    0.256381
N      2.525986    0.925747   -0.830217
C      3.924860    1.041124   -0.417773
C      4.715792   -0.266940   -0.448046
C      6.179545    0.158901   -0.570411
C      6.164824    1.606152   -1.058434
C      4.713698    1.895735   -1.415268
C      0.151204    0.911257   -0.160570
C     -0.537536   -0.243228   -0.880579
C     -3.611987    0.028551    0.492384
C     -3.689182    1.389999    0.865859
C     -4.517333    2.287782    0.194152
C     -5.291907    1.847382   -0.868335
C     -5.240638    0.508186   -1.251683
C     -4.418393   -0.426367   -0.580669
C     -4.431374   -1.857210   -1.092773
F     -4.469890   -2.813281   -0.123195
F     -5.543662   -2.115101   -1.854140
F     -3.384770   -2.154652   -1.912221
H     -2.772356   -2.115198    3.081366
H     -3.920533   -0.773547    3.091054
H     -4.235716   -2.187726    2.087333
H     -1.931593   -0.206203    1.798972
H     -1.906725   -2.731280    1.013776
H     -0.378229   -2.339477   -0.675005
H      0.090545   -0.976255    2.008385
H      0.592753   -2.562403    1.448107
H      2.496896   -1.028051    1.426038
H      2.092532   -1.514330   -0.216845
H      1.821493    1.185599    1.133109
H      2.233615    1.822136   -1.221485
H      4.005229    1.511343    0.571603
H      4.439668   -0.870236   -1.322123
H      4.559766   -0.881567    0.442330
H      6.714372   -0.493739   -1.268705
H      6.689506    0.090974    0.397230
H      6.493696    2.271002   -0.250920
H      6.834911    1.762232   -1.909436
H      4.476752    2.961491   -1.335610
H      4.516987    1.581167   -2.448431
H      0.125674    1.809161   -0.790523
H     -0.420143    1.175278    0.737423
H     -1.518385    0.068245   -1.250591
H      0.038467   -0.485277   -1.784272
H     -3.089023    1.764249    1.694201
H     -4.552965    3.330165    0.500038
H     -5.935741    2.542526   -1.401116
H     -5.856051    0.186808   -2.092312
