55

C     -0.762322   -1.751274    2.248635
C     -1.027142   -0.997211    0.940050
N     -2.427415   -1.153329    0.513592
C     -3.376907   -0.264209    1.216604
C     -4.765545   -0.931411    1.146580
C     -5.355424   -1.029006   -0.261834
C     -5.514967    0.318410   -0.951163
S     -3.941074    1.211752   -1.114109
C     -3.385224    1.177189    0.635626
C     -4.214231    2.151005    1.474580
C     -0.094152   -1.494898   -0.155822
C     -0.154695   -2.815416   -0.626826
C      0.709652   -3.252914   -1.629969
C      1.642317   -2.375398   -2.181746
C      1.715061   -1.048603   -1.740192
C      2.717163   -0.091611   -2.343244
C      3.990399    0.096684   -1.494728
N      3.784822    0.900372   -0.271706
C      4.939751    0.801366    0.634890
C      5.946741    1.822308    0.132031
C      5.109423    2.876777   -0.577583
C      3.683098    2.340930   -0.552240
C      0.845502   -0.620803   -0.726239
H     -1.338985   -1.331083    3.078535
H      0.296957   -1.690653    2.523715
H     -1.020789   -2.813297    2.170917
H     -0.804767    0.062490    1.112069
H     -2.474563   -0.924026   -0.484545
H     -3.108814   -0.210850    2.278739
H     -4.704222   -1.943029    1.570057
H     -5.466627   -0.387132    1.791036
H     -4.745742   -1.697065   -0.882770
H     -6.341981   -1.503267   -0.192366
H     -6.230409    0.947650   -0.412408
H     -5.919628    0.168475   -1.957505
H     -2.361153    1.566365    0.628795
H     -5.274210    1.885048    1.517626
H     -4.139902    3.171048    1.079997
H     -3.840162    2.175070    2.504576
H     -0.885911   -3.507091   -0.213336
H      0.652508   -4.278795   -1.983686
H      2.307618   -2.733640   -2.963313
H      3.017949   -0.474872   -3.327467
H      2.223952    0.865064   -2.550586
H      4.767666    0.545020   -2.126549
H      4.353793   -0.901285   -1.215336
H      4.612760    1.075563    1.645757
H      5.360946   -0.207309    0.704052
H      6.644151    1.361509   -0.577471
H      6.534431    2.250479    0.949683
H      5.176239    3.846563   -0.073974
H      5.463465    3.005978   -1.606546
H      3.135781    2.585365   -1.467368
H      3.133866    2.813134    0.272478
H      0.910952    0.407865   -0.375385
