48

C      3.139448    2.835811    0.889228
C      2.599861    1.565863    0.221754
N      1.486450    1.053446    1.038399
C      0.173802    1.171537    0.409510
C     -0.082899    0.230259   -0.789318
C     -0.050796   -1.263791   -0.438051
C     -1.267739   -1.703259    0.366412
C     -2.590954   -1.405633   -0.364304
C     -3.777695   -1.797459    0.544228
C     -5.007074   -0.922257    0.318106
C     -4.707146    0.555232    0.580656
C     -3.277412    0.967758    0.208100
C     -2.697778    0.050034   -0.875288
C     -1.399401    0.570935   -1.512483
C      3.707626    0.521350    0.059713
C      3.917682   -0.082431   -1.186710
C      4.905207   -1.060625   -1.303041
C      5.645777   -1.411101   -0.178556
F      6.603783   -2.342622   -0.259281
C      5.377664   -0.781939    1.025290
N      4.420779    0.164358    1.171330
H      3.496242    2.645057    1.909280
H      3.979127    3.250202    0.317806
H      2.358537    3.607384    0.945349
H      2.257270    1.853988   -0.780103
H      1.685278    0.091814    1.324946
H     -0.556055    0.979109    1.198335
H      0.014077    2.214341    0.107657
H      0.716124    0.405549   -1.519390
H      0.864272   -1.520436    0.110625
H     -0.017336   -1.847218   -1.370388
H     -1.252160   -1.211292    1.350354
H     -1.196082   -2.784668    0.559460
H     -2.624135   -2.054919   -1.253807
H     -4.035673   -2.848433    0.364840
H     -3.493360   -1.727993    1.602867
H     -5.357810   -1.047650   -0.714515
H     -5.829611   -1.249524    0.963973
H     -5.427333    1.164392    0.017889
H     -4.873246    0.787622    1.640291
H     -2.663249    0.926284    1.114416
H     -3.279926    2.014505   -0.121659
H     -3.436384    0.054071   -1.694178
H     -1.468202    1.652401   -1.689012
H     -1.336839    0.118093   -2.513787
H      3.319035    0.194143   -2.055819
H      5.100596   -1.549898   -2.254801
H      5.937658   -1.032391    1.926104
