48

C      1.839168    3.389622   -0.404869
C      1.503556    2.068162   -1.095194
O      0.350978    1.515296   -0.440574
C     -0.436391    0.699773   -1.206507
O     -0.229978    0.470438   -2.395453
C     -1.559879    0.146441   -0.445226
N     -2.486402   -0.696530   -0.951215
N     -3.272959   -0.868983    0.128208
C     -4.426912   -1.749075    0.124944
C     -5.688724   -1.001780   -0.208296
C     -6.336640   -0.204160    0.747607
C     -7.498163    0.496722    0.412788
C     -8.022960    0.410837   -0.876883
C     -7.385808   -0.376496   -1.833650
C     -6.228963   -1.071845   -1.494433
F     -5.635380   -1.829962   -2.426438
N     -2.881234   -0.224505    1.241275
N     -1.791152    0.438128    0.883347
C      2.653642    1.081022   -1.020073
C      3.223726    0.587020   -2.197660
C      4.272192   -0.324827   -2.138125
C      4.760397   -0.754861   -0.901127
C      4.208586   -0.289222    0.302502
N      4.721056   -0.736341    1.549684
C      5.796426   -1.673372    1.663908
C      6.134483   -1.628830    3.129983
O      4.956833   -1.136212    3.762002
C      4.201102   -0.489104    2.814022
O      3.224486    0.171310    3.128161
C      3.150639    0.627852    0.218926
H      2.738958    3.846180   -0.829786
H      1.989815    3.261374    0.672705
H      1.006244    4.092858   -0.516274
H      1.267961    2.307105   -2.140541
H     -4.502906   -2.209093    1.117262
H     -4.228711   -2.557282   -0.587994
H     -5.937390   -0.114985    1.757183
H     -7.991488    1.115999    1.158867
H     -8.925076    0.959579   -1.135767
H     -7.780437   -0.451323   -2.842263
H      2.845158    0.899461   -3.169157
H      4.707331   -0.709203   -3.057385
H      5.573757   -1.473440   -0.914341
H      5.429323   -2.664957    1.375943
H      6.661988   -1.401693    1.052498
H      6.393731   -2.615039    3.525657
H      6.955468   -0.935758    3.343276
H      2.680545    1.016124    1.118483
