43

C      1.120481    1.274986    0.091989
C      1.394874   -0.145846    0.576767
S      2.244868   -0.143363    2.206486
C      3.902290    0.252339    1.685196
C      4.694792   -0.704512    1.041994
C      5.993539   -0.386484    0.638467
C      6.508065    0.886396    0.882924
C      5.727583    1.838947    1.537532
C      4.428636    1.521470    1.941903
C      0.060596   -0.893071    0.721017
O     -0.802668   -0.526928    1.526772
N     -0.192601   -1.979405   -0.115989
C      0.560065   -2.245098   -1.332928
C     -1.514458   -2.601943   -0.014142
C     -2.535906   -1.859621   -0.883409
O     -2.810820   -2.266190   -2.010228
N     -3.011310   -0.704887   -0.287186
C     -3.966023    0.207988   -0.792314
C     -4.667206   -0.006517   -1.984462
C     -5.608447    0.925445   -2.433537
C     -5.852778    2.073045   -1.691449
F     -6.754999    2.961434   -2.127616
C     -5.177652    2.311656   -0.504026
C     -4.239617    1.380200   -0.055703
Cl    -3.421827    1.717631    1.430959
H      2.051001    1.818634   -0.106017
H      0.551829    1.252488   -0.845463
H      0.527758    1.852734    0.812912
H      2.048560   -0.643140   -0.140105
H      4.314449   -1.706505    0.860741
H      6.607495   -1.133563    0.142276
H      7.520814    1.133165    0.572755
H      6.132740    2.828113    1.738983
H      3.832563    2.271553    2.457866
H      1.605042   -2.438826   -1.080699
H      0.167366   -3.124715   -1.849046
H      0.495435   -1.373763   -1.989798
H     -1.859125   -2.611279    1.026335
H     -1.450208   -3.646472   -0.337182
H     -2.572039   -0.442302    0.602595
H     -4.511946   -0.895030   -2.588905
H     -6.151868    0.756617   -3.357634
H     -5.389345    3.214622    0.058918
