43

C     -6.271880   -0.767095    1.237017
C     -5.125177   -0.523280    0.290345
C     -5.333215   -0.698631   -1.082901
C     -4.309978   -0.486366   -2.007791
C     -3.056382   -0.090329   -1.524549
S     -1.623896    0.244826   -2.407961
C     -0.767362    0.594490   -0.945715
N      0.547320    0.987653   -0.911273
C      1.145715    1.066888    0.440032
C      2.475290    1.850424    0.425683
N      3.444026    1.313493   -0.559485
C      4.141178    0.182543   -0.106201
N      3.823972   -1.023308   -0.640619
C      4.484380   -2.122095   -0.198030
C      5.477836   -2.089020    0.762711
Cl     6.266345   -3.525941    1.267659
C      5.828532   -0.862046    1.300726
C      5.163157    0.285832    0.862824
Cl     5.696188    1.802674    1.505935
C      2.842113    1.187718   -1.905989
C      1.480744    0.452902   -1.927591
N     -1.512767    0.487667    0.133032
C     -2.808888    0.094400   -0.168258
C     -3.852053   -0.120840    0.772828
C     -3.620737    0.071566    2.248584
H     -6.510015    0.147302    1.789404
H     -6.020793   -1.566838    1.940815
H     -7.177502   -1.073044    0.702311
H     -6.310102   -1.006224   -1.453186
H     -4.483460   -0.623811   -3.070492
H      1.310491    0.053683    0.828760
H      0.472217    1.586291    1.133470
H      2.885165    1.876767    1.440872
H      2.268317    2.893089    0.151844
H      4.175744   -3.056501   -0.658707
H      6.618087   -0.791531    2.042804
H      2.683778    2.207187   -2.282245
H      3.541281    0.717498   -2.609303
H      1.077110    0.579644   -2.938557
H      1.613482   -0.622496   -1.764950
H     -2.592968    0.382247    2.460620
H     -4.286340    0.847627    2.639332
H     -3.798953   -0.865017    2.786195
