30

C      0.074736   -1.191809   -1.909070
C     -0.569335   -0.294140   -0.877473
C      0.170849    0.174088    0.232631
N      1.512631   -0.251795    0.421729
C      2.385610    0.138056    1.431130
O      2.138218    0.943041    2.317029
C      3.713920   -0.556628    1.306021
C      4.654034   -0.137431    2.400039
F      4.940729    1.178536    2.362077
F      5.831759   -0.796765    2.237465
F      4.198599   -0.458867    3.626734
C     -0.482893    1.032164    1.110356
N     -1.773670    1.421945    0.991149
C     -2.489827    0.938425   -0.027476
C     -3.820764    1.324162   -0.112403
C     -4.660422    0.864157   -1.125645
C     -4.160984   -0.008001   -2.078428
C     -2.824416   -0.406222   -2.014577
C     -1.951658    0.061737   -0.997157
H      0.036943   -2.233133   -1.575592
H      1.115210   -0.906583   -2.094460
H     -0.401365   -1.113476   -2.889579
H      1.864566   -0.930508   -0.238886
H      3.551794   -1.639061    1.353096
H      4.149233   -0.312507    0.330809
H     -0.001544    1.456411    1.984729
H     -4.216891    2.003034    0.640045
H     -5.697917    1.185036   -1.160063
H     -4.805918   -0.381809   -2.869578
H     -2.481228   -1.102056   -2.774653
