48

C      2.758041   -2.971384    2.162303
C      2.752238   -1.738584    1.315050
N      1.563120   -1.239137    0.954999
C      1.560047   -0.143446    0.191002
N      0.350978    0.438191   -0.217817
C     -0.893900    0.112354    0.270612
O     -1.154929   -0.631565    1.204663
N     -1.875319    0.790394   -0.438539
C     -3.286506    0.575245   -0.130878
C     -4.113480    1.758132   -0.645270
C     -5.606573    1.556731   -0.406302
C     -6.099823    0.240250   -1.002261
C     -5.291290   -0.975159   -0.527528
C     -5.612238   -1.336585    0.925307
C     -3.786521   -0.746714   -0.735937
C      2.727656    0.442398   -0.254178
C      3.917469   -0.143546    0.139430
C      5.241813    0.377284   -0.260411
C      6.351958    0.255261    0.600828
C      7.615188    0.743999    0.247960
C      7.797092    1.364369   -0.982923
C      6.717620    1.483729   -1.846622
F      6.888535    2.073421   -3.037340
C      5.456887    0.999922   -1.501850
N      3.936644   -1.235111    0.931523
H      1.886554   -2.988053    2.823914
H      3.659116   -3.008768    2.782083
H      2.732848   -3.858207    1.522536
H      0.396327    1.274890   -0.773620
H     -1.659173    0.940285   -1.412463
H     -3.379736    0.529513    0.961141
H     -3.786225    2.683437   -0.155356
H     -3.935008    1.899119   -1.719584
H     -5.813837    1.582209    0.669768
H     -6.162845    2.389444   -0.851968
H     -6.029320    0.303402   -2.096010
H     -7.162244    0.105221   -0.767417
H     -5.587976   -1.835919   -1.141176
H     -5.355623   -0.534081    1.622684
H     -6.680253   -1.550297    1.040687
H     -5.060590   -2.232672    1.229188
H     -3.221916   -1.592750   -0.325198
H     -3.579407   -0.745305   -1.815105
H      2.713390    1.332601   -0.867149
H      6.232216   -0.230114    1.569710
H      8.450272    0.634715    0.935306
H      8.768965    1.747808   -1.275825
H      4.659757    1.103072   -2.231480
