54

C     -8.545945    1.489790    1.933163
C     -7.478639    0.537993    1.534087
C     -7.391943   -0.820154    1.748395
N     -6.263417   -1.434721    1.246593
C     -5.484484   -0.547951    0.653165
C     -4.158898   -0.899037   -0.009605
N     -3.185907    0.158236    0.235458
C     -1.846736   -0.112612    0.274661
O     -1.361254   -1.230322    0.180574
N     -1.118182    1.042054    0.430889
C      0.322903    0.979801    0.589650
C      1.031943    0.704417   -0.736740
C      2.556159    0.743930   -0.623824
C      3.122967   -0.375710    0.249434
N      4.571472   -0.341500    0.287525
C      5.395761   -0.986165   -0.721204
C      6.771680   -0.557320   -0.333182
C      7.991853   -0.879674   -0.899970
C      9.147278   -0.323473   -0.337681
C      9.071391    0.541006    0.770969
C      7.837098    0.863919    1.336753
C      6.712049    0.300136    0.766142
C      5.303108    0.462929    1.145028
O      4.896667    1.185466    2.034310
C     -4.173082   -1.211535   -1.493843
C     -4.723620   -0.261454   -2.534032
C     -5.428798   -1.561996   -2.259908
S     -6.097647    1.069437    0.674327
H     -9.299579    0.993932    2.554013
H     -8.132617    2.322378    2.511984
H     -9.051548    1.895587    1.050823
H     -8.129232   -1.420374    2.268336
H     -3.794758   -1.802015    0.499346
H     -3.427823    1.067523   -0.125071
H     -1.592084    1.743792    0.981268
H      0.640795    1.947793    0.991476
H      0.550110    0.209181    1.333251
H      0.722159   -0.265217   -1.143760
H      0.717782    1.457527   -1.470613
H      2.872910    1.719482   -0.234256
H      2.979703    0.665314   -1.632856
H      2.810238   -1.360897   -0.112510
H      2.767138   -0.262695    1.278694
H      5.123865   -0.610733   -1.711718
H      5.265930   -2.069669   -0.652636
H      8.059655   -1.543159   -1.756199
H     10.120539   -0.560800   -0.762947
H      9.983351    0.961127    1.189471
H      7.756037    1.528546    2.190105
H     -3.275041   -1.762255   -1.766008
H     -5.214202    0.652618   -2.226103
H     -4.178032   -0.168880   -3.467309
H     -6.390042   -1.527357   -1.760212
H     -5.359029   -2.346242   -3.006444
