39

C      4.224995   -1.123909    1.349933
C      3.095457   -0.305967    0.799452
C      3.188124    1.079568    0.738087
C      2.139895    1.827495    0.203832
C      0.970360    1.219613   -0.300956
C     -0.083092    2.164572   -0.850462
C     -1.358036    2.374400   -0.012070
N     -1.932214    1.166299    0.545959
C     -1.356483    0.672303    1.735411
O     -0.868050    1.315167    2.648053
N     -1.310537   -0.714470    1.637379
C     -1.560769   -1.105893    0.267291
C     -2.272934   -2.456564    0.213512
C     -0.332217   -1.045372   -0.703521
C     -0.944535   -0.661709   -2.061824
C     -2.261295    0.062033   -1.763494
C     -2.426129    0.048715   -0.248824
C      0.865893   -0.195003   -0.258897
C      1.946604   -0.926341    0.295174
H      4.794551   -0.556765    2.093744
H      3.848034   -2.023473    1.847851
H      4.899716   -1.421948    0.541563
H      4.069754    1.592660    1.114257
H      2.242420    2.911530    0.192780
H      0.362161    3.159190   -0.996517
H     -0.325617    1.868899   -1.871918
H     -1.121471    3.050504    0.818793
H     -2.126677    2.870004   -0.615135
H     -0.618123   -1.156055    2.228648
H     -1.628949   -3.248361    0.612505
H     -2.554168   -2.733152   -0.807637
H     -3.186239   -2.445229    0.819412
H      0.052444   -2.067982   -0.828689
H     -1.176536   -1.575823   -2.624661
H     -0.272209   -0.084840   -2.703126
H     -2.315212    1.058737   -2.207422
H     -3.076699   -0.514223   -2.219514
H     -3.482523   -0.065170    0.025081
H      1.890307   -2.013442    0.345953
