33

C     -0.644683   -2.275042   -1.891745
C     -1.359776   -1.445184   -0.889617
N     -2.530365   -1.858728   -0.391162
N     -2.906578   -0.878907    0.465553
C     -4.064624   -0.831665    1.236308
C     -4.300196    0.211256    2.043276
C     -3.249810    1.266040    2.032193
N     -2.158992    1.257403    1.327222
C     -1.972043    0.161022    0.523068
C     -0.956997   -0.203034   -0.339256
C      0.231350    0.594783   -0.587317
C      0.085994    1.755661   -1.362391
C      1.191575    2.539525   -1.672793
C      2.453176    2.170098   -1.212840
C      2.628729    1.019068   -0.428711
C      3.910014    0.670482    0.030028
C      4.098550   -0.462417    0.817538
Cl     5.677199   -0.869274    1.368179
C      3.019355   -1.262969    1.164229
C      1.740013   -0.928492    0.713938
C      1.510383    0.210531   -0.097093
H      0.115179   -2.891041   -1.400828
H     -1.334447   -2.940611   -2.421240
H     -0.150302   -1.646612   -2.639326
H     -4.734279   -1.674668    1.135046
H     -5.171736    0.321306    2.670846
H     -3.445005    2.125193    2.695601
H     -0.896105    2.052238   -1.725152
H      1.070305    3.438190   -2.271735
H      3.304575    2.798319   -1.468211
H      4.768341    1.288023   -0.224964
H      3.159050   -2.143214    1.785576
H      0.912150   -1.567284    1.015779
