53

C     -4.223154   -2.279567    1.475094
C     -4.207271   -0.984664    0.721889
C     -5.335183   -0.279047    0.492772
C     -5.196333    0.795057   -0.467041
C     -5.418113    0.447182   -1.749376
C     -4.355916    0.652095   -2.711903
C     -3.146439    0.084726   -2.528313
C     -2.724330   -0.836128   -1.381033
C     -2.874854   -0.401242    0.135834
C     -1.641952   -0.890176    0.981647
N     -0.400783   -0.099218    0.925825
C      0.547787   -0.512995    1.967235
C      1.906032    0.001071    1.499257
C      1.686928    0.479653    0.063883
C      2.794265    0.128005   -0.940145
N      4.015171    0.931530   -0.812837
C      4.918082    0.714895   -1.948597
C      6.222159    1.340420   -1.484107
C      6.183339    1.246173    0.035439
C      4.827834    0.634942    0.366587
C      0.356861   -0.171067   -0.320652
C     -2.993556    1.144124    0.319557
O     -4.214234    1.729318   -0.173669
H     -3.726037   -3.063374    0.894499
H     -3.721843   -2.181734    2.442055
H     -5.246220   -2.619287    1.671468
H     -6.319182   -0.567789    0.840737
H     -6.096108   -0.365125   -2.002683
H     -4.570779    1.266619   -3.581018
H     -2.385372    0.267354   -3.285542
H     -1.678988   -1.087195   -1.582321
H     -3.237025   -1.797606   -1.531689
H     -1.430532   -1.942701    0.745384
H     -1.951838   -0.870620    2.035803
H      0.590705   -1.605646    2.063126
H      0.277265   -0.094675    2.942255
H      2.246105    0.829475    2.130248
H      2.646828   -0.803503    1.560601
H      1.547683    1.570638    0.075907
H      2.382648    0.307392   -1.942551
H      3.024985   -0.944258   -0.890111
H      5.068625   -0.354339   -2.145862
H      4.550424    1.190126   -2.863449
H      7.091267    0.822307   -1.902375
H      6.278168    2.392682   -1.789843
H      6.279447    2.248166    0.471941
H      7.001820    0.630661    0.424509
H      4.423915    1.081661    1.278715
H      4.940192   -0.445899    0.519682
H      0.505473   -1.208870   -0.645265
H     -0.117161    0.397443   -1.126182
H     -2.171372    1.661484   -0.187760
H     -2.929432    1.411523    1.382792
