34

C     -3.939425    0.699663   -2.243392
C     -3.650731    1.079995   -0.849673
C     -2.870615    0.554029    0.163638
C     -2.022280   -0.680600    0.152816
C     -1.763598   -1.259969    1.540612
S     -0.466739   -0.411807   -0.793993
C      0.409757    0.797101    0.268402
C      1.478308    0.160308    1.164045
C      2.702924   -0.321947    0.421930
C      3.679826    0.588740   -0.004498
C      4.809467    0.144517   -0.693638
C      4.973025   -1.212438   -0.964749
C      4.007021   -2.126055   -0.547847
C      2.877111   -1.683765    0.142081
N     -2.973425    1.365899    1.278301
C     -3.789318    2.321551    0.897050
O     -4.242850    2.218771   -0.380053
H     -4.950974    1.003433   -2.530258
H     -3.230280    1.181910   -2.922838
H     -3.863321   -0.383335   -2.379082
H     -2.567909   -1.447193   -0.411533
H     -1.270874   -0.546383    2.208917
H     -2.711559   -1.534394    2.018647
H     -1.150964   -2.166556    1.487337
H     -0.306633    1.343594    0.886761
H      0.868917    1.534364   -0.399488
H      1.808394    0.909399    1.896398
H      1.058139   -0.657007    1.761572
H      3.566757    1.651189    0.198077
H      5.561119    0.857946   -1.020627
H      5.851247   -1.557697   -1.503387
H      4.130596   -3.183981   -0.763143
H      2.128492   -2.408689    0.453357
H     -4.139605    3.169410    1.468258
