43

C     -1.624544    1.862317   -2.083376
C     -0.975890    0.889479   -1.142014
C      0.424923    0.866554   -1.038619
C      1.057686   -0.029984   -0.178811
N      2.468583   -0.016871   -0.132849
C      3.265955   -0.764351    0.712656
O      2.884502   -1.502945    1.610105
C      4.732146   -0.600313    0.511291
C      5.568984   -0.639213    1.633974
C      6.950944   -0.498143    1.484283
C      7.505349   -0.329784    0.211213
Cl     9.219946   -0.158688    0.095945
C      6.671281   -0.310174   -0.914448
Cl     7.286933   -0.122717   -2.519921
C      5.286071   -0.448866   -0.766457
C      0.238619   -0.876026    0.552428
N     -1.117195   -0.870868    0.484730
C     -1.722105    0.009361   -0.343182
N     -3.133567    0.043261   -0.386056
C     -3.723552   -1.277855   -0.142533
C     -5.213392   -1.227493   -0.497568
C     -5.877763    0.094929   -0.107416
C     -5.078855    0.820444    0.968218
C     -3.640983    1.100328    0.510971
H     -2.511914    1.430807   -2.556619
H     -0.940868    2.138098   -2.893703
H     -1.904519    2.774159   -1.547428
H      1.009581    1.556600   -1.643358
H      2.920747    0.659193   -0.735265
H      5.145293   -0.779974    2.628625
H      7.589264   -0.525726    2.365291
H      4.655291   -0.470589   -1.652003
H      0.630564   -1.617063    1.239494
H     -3.247742   -2.047769   -0.764983
H     -3.604637   -1.578672    0.907761
H     -5.347063   -1.383952   -1.574011
H     -5.721601   -2.061465   -0.001073
H     -6.903306   -0.088975    0.232942
H     -5.951947    0.738055   -0.993954
H     -5.059190    0.203556    1.876939
H     -5.569018    1.761861    1.243064
H     -3.012641    1.225926    1.403370
H     -3.630369    2.053552   -0.030104
