51

C      6.477114   -0.053696    1.858625
C      5.403076    0.517801    0.981671
C      4.106185   -0.009934    1.014368
C      3.106412    0.531406    0.206380
O      1.837549    0.035119    0.291384
C      1.479440   -0.980798   -0.678342
C      1.404606   -0.427724   -2.108177
C      2.381184   -2.220738   -0.618450
C      0.040506   -1.387648   -0.265532
O     -0.342127   -2.553165   -0.183416
N     -0.805602   -0.312791   -0.047264
C     -2.151840   -0.502639    0.501760
C     -2.047417   -0.720570    2.026870
O     -1.466274    0.423993    2.656015
C     -3.023096    0.716804    0.120925
C     -4.516060    0.433545   -0.213311
C     -5.215482    1.787231   -0.455348
C     -5.241259   -0.287199    0.931323
C     -4.639080   -0.405409   -1.498460
C      3.365741    1.652786   -0.576600
C      4.650124    2.194392   -0.604477
C      5.665269    1.627933    0.168992
H      6.324766   -1.127099    2.013023
H      6.472854    0.448158    2.831048
H      7.463522    0.071177    1.399729
H      3.871379   -0.843932    1.670677
H      0.910568   -1.136522   -2.782307
H      2.402581   -0.227966   -2.512482
H      0.848218    0.515564   -2.144412
H      2.002758   -3.024658   -1.259759
H      2.446563   -2.607530    0.404847
H      3.401197   -1.995050   -0.946773
H     -0.327048    0.531112    0.258964
H     -2.555118   -1.416068    0.054564
H     -3.027203   -0.894127    2.477243
H     -1.411486   -1.584014    2.249964
H     -1.311741    0.182993    3.585824
H     -2.969751    1.469806    0.918056
H     -2.582205    1.205263   -0.760622
H     -5.173420    2.419579    0.438716
H     -6.271436    1.649277   -0.714406
H     -4.741562    2.336850   -1.276520
H     -5.137045    0.262291    1.873254
H     -6.313120   -0.381019    0.721257
H     -4.855338   -1.300790    1.079906
H     -5.688592   -0.520612   -1.793421
H     -4.228074   -1.411745   -1.372726
H     -4.111732    0.070114   -2.332992
H      2.573127    2.115552   -1.156256
H      4.858379    3.066859   -1.218243
H      6.659991    2.067837    0.145114
