42

C      7.896044   -1.676759   -0.259194
C      6.918802   -0.659813    0.163633
C      5.548958   -0.577296    0.142786
C      5.260203    0.682631    0.710275
N      4.043028    1.285580    0.937588
C      2.816361    0.741359    0.630019
O      2.630547   -0.340003    0.082364
C      1.676837    1.670389    0.994437
C      0.337137    0.944796    0.975401
N     -0.731201    1.928589    1.222544
S     -2.165846    1.415254    1.962092
O     -2.921823    2.651566    2.079675
O     -1.801196    0.706678    3.169604
C     -2.991716    0.373914    0.851076
C     -4.069942    0.839379    0.192593
C     -4.807827   -0.022375   -0.731055
C     -5.928969    0.437996   -1.425663
C     -6.610121   -0.417758   -2.294925
C     -6.175064   -1.732550   -2.471524
C     -5.056668   -2.199482   -1.780089
C     -4.379984   -1.342456   -0.913948
N     -3.254844   -1.795556   -0.217541
C     -2.523937   -1.015774    0.646499
O     -1.521296   -1.476573    1.178373
N      6.384565    1.322433    1.051130
O      7.424200    0.478230    0.707001
H      8.497266   -2.008876    0.592685
H      7.393997   -2.551903   -0.683145
H      8.569385   -1.269288   -1.019488
H      4.862347   -1.324040   -0.226783
H      4.114005    2.192977    1.378043
H      1.854444    2.093235    1.990762
H      1.673697    2.498337    0.275115
H      0.162748    0.472019    0.003210
H      0.347696    0.171076    1.748805
H     -0.901569    2.617018    0.490850
H     -4.439491    1.851081    0.333842
H     -6.284885    1.457602   -1.297954
H     -7.484033   -0.059219   -2.834364
H     -6.710524   -2.394291   -3.148472
H     -4.728216   -3.224662   -1.924693
H     -2.923117   -2.743467   -0.343199
