37

C     -3.867364    1.621680   -2.382245
C     -3.972217    0.297649   -1.677200
C     -5.203117   -0.375383   -1.640585
C     -5.318837   -1.604738   -0.994518
C     -4.206104   -2.172266   -0.381490
C     -2.975075   -1.511947   -0.410626
C     -2.848942   -0.276293   -1.053241
O     -1.688511    0.448517   -1.137868
C     -0.543597   -0.057748   -0.446463
C      0.603462    0.937023   -0.641966
N      1.748999    0.695191    0.220540
C      2.531088   -0.417401    0.029652
O      2.286861   -1.256422   -0.830840
N      3.611835   -0.502131    0.889050
C      4.596022   -1.544451    0.664228
C      3.687157    0.211396    2.170946
C      4.278928    1.612104    2.096847
O      4.684141    2.260100    3.050122
O      4.236830    2.179687    0.872833
H     -4.828155    1.926618   -2.810265
H     -3.555026    2.401499   -1.680118
H     -3.144357    1.558488   -3.201939
H     -6.079737    0.055842   -2.118401
H     -6.275413   -2.119951   -0.972549
H     -4.292968   -3.133275    0.118837
H     -2.132344   -1.994001    0.073743
H     -0.764246   -0.148126    0.624386
H     -0.263307   -1.037158   -0.849218
H      0.935841    0.931627   -1.686839
H      0.252661    1.952952   -0.426673
H      2.325569    1.512591    0.379271
H      4.384780   -2.378545    1.339866
H      4.570385   -1.906174   -0.367471
H      5.593191   -1.144815    0.871067
H      2.677793    0.300322    2.586998
H      4.296914   -0.379429    2.863081
H      4.656861    3.056967    1.003691
