49

C     -2.760516   -4.513171   -0.933940
C     -2.826542   -3.114560   -0.417269
C     -1.806326   -2.442467    0.133750
C     -2.113499   -1.042328    0.572286
O     -1.340555   -0.143421   -0.230676
C     -0.097077    0.135841    0.244454
O      0.341545   -0.225367    1.331432
C      0.671808    1.014036   -0.747472
C      0.197373    2.455701   -0.634312
N      2.101366    0.923034   -0.441400
C      2.857039   -0.099516   -0.979879
O      2.412006   -0.847193   -1.849093
C      4.275870   -0.247357   -0.396122
C      5.044067   -1.317210   -1.194104
C      5.038545    1.084154   -0.496702
C      4.186862   -0.693965    1.071216
C     -3.585773   -0.820434    0.282850
C     -4.366284    0.239644    0.569614
C     -4.071528    1.538974    1.292055
C     -2.963775    1.494622    2.344705
C     -3.891748    2.660826    0.267501
O     -4.508301    2.792989   -0.782781
O     -3.015187    3.618985    0.639393
S     -4.313751   -2.212305   -0.524868
H     -3.047989   -4.550814   -1.990787
H     -3.433748   -5.165470   -0.366077
H     -1.748141   -4.926712   -0.851463
H     -0.815868   -2.860111    0.262351
H     -1.917388   -0.938769    1.645205
H      0.499814    0.633153   -1.760855
H     -0.860845    2.540224   -0.907112
H      0.307980    2.835256    0.387920
H      0.773292    3.110353   -1.298280
H      2.372589    1.246243    0.479274
H      6.050329   -1.472864   -0.789888
H      4.522614   -2.280091   -1.172719
H      5.147044   -1.025276   -2.246846
H      4.602705    1.852643    0.149053
H      5.020738    1.472167   -1.521170
H      6.085655    0.964862   -0.200469
H      3.713039    0.065337    1.704144
H      3.595426   -1.613173    1.166629
H      5.183535   -0.889261    1.487487
H     -5.406187    0.193579    0.233204
H     -4.988764    1.796185    1.840897
H     -3.073286    0.624820    3.003561
H     -3.008501    2.387922    2.980025
H     -1.966426    1.482966    1.898045
H     -3.073238    4.277318   -0.086385
