52

C     -2.681626    3.650467   -2.929604
C     -2.522045    2.428297   -2.072961
C     -2.540950    1.150114   -2.640144
C     -2.403778    0.011213   -1.840234
C     -2.253239    0.114970   -0.443922
C     -2.104463   -1.119328    0.482626
C     -0.861196   -0.941036    1.413988
N      0.391752   -0.835193    0.690913
C      1.597455   -0.895873    1.363014
O      1.704191   -1.268686    2.527404
C      2.794535   -0.497287    0.479523
C      4.052244   -0.256296    1.365418
C      5.037712    0.520636    0.577191
C      4.784647    1.111472   -0.637084
C      3.476842    1.017275   -1.348489
N      2.403049    0.687841   -0.370202
N      5.886675    1.791070   -1.075935
C      6.796856    1.605206   -0.143615
N      6.330017    0.827083    0.883883
C     -1.924971   -2.485658   -0.256142
C     -3.273565   -3.138306   -0.528229
O     -3.960310   -3.485276    0.680275
C     -3.699244   -2.624479    1.789194
C     -3.392060   -1.194331    1.361613
C     -2.276597    1.412977    0.118086
C     -2.398191    2.550594   -0.685010
H     -3.685873    4.066658   -2.804466
H     -1.938804    4.408562   -2.656122
H     -2.537281    3.418248   -3.991416
H     -2.664617    1.025316   -3.718094
H     -2.435120   -0.950939   -2.347661
H     -0.939250   -0.042339    2.037206
H     -0.780482   -1.781983    2.116174
H      0.425266   -0.220874   -0.122269
H      2.978510   -1.347014   -0.190667
H      4.476528   -1.220016    1.677706
H      3.792414    0.306042    2.272157
H      3.519267    0.248833   -2.124004
H      3.238980    1.975831   -1.825464
H      2.322357    1.495191    0.252666
H      7.803633    2.000673   -0.152506
H      6.845420    0.565886    1.714904
H     -1.336089   -2.387072   -1.178109
H     -1.358601   -3.180902    0.386674
H     -3.928576   -2.485235   -1.117485
H     -3.135183   -4.061870   -1.102682
H     -4.586342   -2.641126    2.432655
H     -2.872386   -3.050923    2.371379
H     -4.256281   -0.826519    0.790812
H     -3.303891   -0.550735    2.246205
H     -2.206611    1.561056    1.197438
H     -2.400727    3.537784   -0.221787
