43

C     -7.314498    1.334612    0.716961
C     -6.087481    0.520765    0.429708
C     -6.196181   -0.838199    0.114554
C     -5.057039   -1.584667   -0.190382
C     -3.802912   -0.977460   -0.197988
O     -2.742036   -1.788875   -0.503973
C     -1.534513   -1.088707   -0.826879
C     -1.218593   -0.009150    0.199757
C      0.149593    0.593471   -0.055594
O      0.315154    1.745704   -0.440616
N      1.194424   -0.279293    0.182186
C      2.571947    0.181131    0.108730
C      3.546663   -0.985284   -0.047267
C      4.980188   -0.521862   -0.087092
C      5.557839   -0.107158   -1.294709
C      6.879398    0.340062   -1.329325
C      7.633753    0.380436   -0.158413
C      7.067066   -0.024660    1.048536
C      5.745418   -0.472027    1.085749
C     -2.323860    1.041499    0.127926
C     -3.672969    0.377198    0.125203
C     -4.822895    1.124539    0.418936
H     -7.702698    1.766106   -0.210730
H     -8.095014    0.717296    1.174052
H     -7.089900    2.145073    1.418325
H     -7.168687   -1.324657    0.101953
H     -5.149088   -2.639806   -0.432511
H     -1.616069   -0.678973   -1.842618
H     -0.738918   -1.841182   -0.859934
H     -1.219933   -0.448005    1.207319
H      1.004051   -1.076730    0.777123
H      2.774767    0.740916    1.029422
H      2.669791    0.882673   -0.728172
H      3.413422   -1.700055    0.775303
H      3.317454   -1.547729   -0.961789
H      4.981097   -0.127986   -2.217012
H      7.319753    0.659329   -2.270379
H      8.662466    0.729821   -0.186314
H      7.654842    0.009651    1.962160
H      5.318466   -0.780787    2.037154
H     -2.236977    1.646147   -0.783898
H     -2.237055    1.721530    0.984353
H     -4.730234    2.185292    0.645663
