40

C      3.446068   -1.208727   -1.718030
C      3.430213   -0.806549   -0.272100
C      4.431782   -1.256659    0.598012
C      4.457290   -0.835786    1.928941
C      3.479983    0.035532    2.398710
O      3.596366    0.449174    3.698836
C      2.447154    0.464154    1.556105
C      1.409461    1.379219    2.089260
O      1.799677    2.273287    2.841940
N      0.059136    1.201070    1.756633
C     -0.866647    2.173237    2.328619
C     -0.504255   -0.133189    1.495974
C     -1.507443   -0.121202    0.349481
N     -2.541805   -0.894247    0.368962
C     -3.400989   -0.857650   -0.736385
N     -4.454918   -1.696989   -0.655594
C     -5.320582   -1.700989   -1.695461
C     -5.185225   -0.901265   -2.821803
C     -4.094359   -0.041910   -2.890839
C     -3.193174   -0.028051   -1.828871
C     -2.016569    0.843679   -1.800650
O     -1.779733    1.648252   -2.692233
N     -1.209923    0.706057   -0.702421
C      2.451065    0.074474    0.209536
H      3.877735   -2.207563   -1.840970
H      4.036419   -0.493385   -2.298716
H      2.429570   -1.242187   -2.124166
H      5.212063   -1.925965    0.240562
H      5.249207   -1.171243    2.593504
H      3.058706    1.265976    3.798395
H     -1.796084    2.193064    1.753874
H     -1.077333    1.894451    3.365718
H     -0.426872    3.175186    2.312483
H     -1.001854   -0.470209    2.413200
H      0.263959   -0.873805    1.266594
H     -6.156406   -2.388683   -1.594835
H     -5.913976   -0.947896   -3.624126
H     -3.948504    0.604249   -3.752071
H     -0.442685    1.360734   -0.619218
H      1.703478    0.462353   -0.474472
