51

C      7.086302    0.819265   -3.048983
C      5.656720    0.461100   -2.997876
N      4.684467    1.368756   -2.858646
O      3.522359    0.595241   -2.898209
C      3.922588   -0.702610   -3.037143
C      2.861076   -1.729361   -3.117243
C      2.335087   -2.104228   -1.735846
N      1.620390   -1.019213   -1.074841
C      1.494994   -1.003432    0.299193
O      2.019494   -1.792942    1.069808
C      0.634304    0.068627    0.822990
C     -0.692025   -0.248106    1.103611
C     -1.499857    0.730228    1.661206
C     -2.903808    0.465989    2.030988
C     -3.502101    1.080933    3.134922
C     -4.821427    0.778744    3.449539
C     -5.516089   -0.128822    2.651917
C     -4.856141   -0.707420    1.571324
C     -5.502011   -1.637642    0.655837
C     -5.223733   -1.961340   -0.663019
N     -6.136921   -2.854378   -1.173174
C     -6.947469   -3.107605   -0.171896
N     -6.598827   -2.408235    0.953507
N     -3.569172   -0.431145    1.257091
N     -1.029600    1.977775    1.905437
C      0.264862    2.266825    1.596102
C      1.149097    1.343415    1.068150
C      2.570310    1.710472    0.808913
C      2.851057    3.163220    1.044038
N      2.012307    4.035274    1.500802
C      0.722430    3.671672    1.830978
O     -0.064390    4.483100    2.306640
N      5.224691   -0.838015   -3.107225
H      7.538941    0.419869   -3.963831
H      7.230669    1.903781   -3.043085
H      7.620849    0.397893   -2.189492
H      3.276971   -2.626481   -3.599218
H      2.038529   -1.370443   -3.757252
H      3.156649   -2.445740   -1.087890
H      1.621435   -2.927995   -1.824711
H      0.959241   -0.471144   -1.621142
H     -1.079702   -1.246016    0.917396
H     -2.942994    1.785502    3.744446
H     -5.304900    1.252165    4.300218
H     -6.553332   -0.345341    2.872916
H     -4.421304   -1.569289   -1.275644
H     -7.797300   -3.777449   -0.201136
H     -7.062617   -2.463647    1.853915
H      3.242412    1.134253    1.459011
H      2.834324    1.502761   -0.230670
H      3.873168    3.506697    0.807277
