36

C      4.027091    1.330333    0.718164
C      2.740256    0.993319    0.035944
N      2.216715   -0.172485    0.120159
C      0.969903   -0.449212   -0.588537
C      0.115711    0.818373   -0.659864
C     -0.428998    1.240454    0.716219
N     -1.751993    1.859732    0.565397
C     -2.847592    0.913210    0.816802
C     -2.994892   -0.267814   -0.156209
C     -2.239701   -1.551209    0.227295
C     -1.019217   -1.915602   -0.638193
N      0.250001   -1.580944    0.032137
C      1.114812   -2.763801    0.109161
C      0.976222    1.903203   -1.288259
O      2.234645    2.059817   -0.622766
H      4.458594    0.437165    1.178652
H      4.737397    1.728325   -0.011604
H      3.842519    2.076422    1.495728
H      1.238640   -0.742948   -1.614072
H     -0.712884    0.654366   -1.355151
H     -0.464091    0.427258    1.448536
H      0.236465    1.991150    1.160642
H     -1.832776    2.603066    1.261525
H     -2.811726    0.556682    1.853671
H     -3.769547    1.503829    0.741112
H     -2.795962    0.035783   -1.189291
H     -4.063419   -0.527711   -0.146349
H     -2.954827   -2.377649    0.105272
H     -1.985875   -1.560022    1.294353
H     -1.093392   -1.499561   -1.649891
H     -1.074228   -3.002320   -0.795752
H      1.432128   -3.105018   -0.882895
H      2.006903   -2.575235    0.715738
H      0.591704   -3.588958    0.607004
H      1.187430    1.676885   -2.339998
H      0.463983    2.871116   -1.264683
