68

C      7.986384   -0.558169   -0.717747
C      6.581935   -0.085093   -0.760040
N      6.126054    0.750825    0.181630
N      4.836159    0.969146   -0.157632
C      4.049634    1.866288    0.671838
C      3.893891    1.396757    2.119457
C      3.148658    0.063729    2.263916
N      1.832254    0.051260    1.609721
C      0.834825    0.878751    2.281824
C     -0.382449    1.054743    1.366346
C     -0.705738   -0.186360    0.484670
N     -2.156771   -0.227252    0.135459
C     -2.586531    0.964199   -0.633791
C     -3.912535    1.554492   -0.186398
C     -4.327142    1.522490    1.152925
C     -5.531660    2.111736    1.542171
C     -6.329689    2.756155    0.600766
C     -5.923780    2.813337   -0.730412
C     -4.721323    2.221027   -1.120891
C     -2.618355   -1.507560   -0.465737
C     -1.883198   -1.913468   -1.763345
C     -2.712957   -2.864381   -2.621937
O     -3.499252   -3.717414   -1.803777
C     -4.528922   -3.018115   -1.101830
C     -4.135754   -1.599008   -0.688197
C     -0.177671   -1.426651    1.232802
C      1.336148   -1.329933    1.484606
C      4.457059    0.320028   -1.309181
C      3.102774    0.418512   -1.905891
C      5.576451   -0.377602   -1.701001
Br     5.777243   -1.496930   -3.189689
H      8.032280   -1.647307   -0.810590
H      8.561004   -0.114156   -1.536186
H      8.474735   -0.284308    0.223280
H      4.568146    2.832109    0.651055
H      3.073935    2.020956    0.204668
H      3.381478    2.179980    2.689398
H      4.882424    1.289163    2.583976
H      3.050765   -0.182722    3.329049
H      3.779724   -0.719206    1.823469
H      0.534505    0.433817    3.239737
H      1.216985    1.879267    2.510901
H     -0.196648    1.917709    0.714444
H     -1.238371    1.314216    2.001552
H     -0.134328   -0.097666   -0.450475
H     -2.628263    0.738049   -1.706243
H     -1.868401    1.787501   -0.555119
H     -3.715323    1.024678    1.901227
H     -5.842996    2.069315    2.582639
H     -7.265299    3.217119    0.905118
H     -6.541085    3.324054   -1.463818
H     -4.417170    2.283965   -2.163393
H     -2.421636   -2.287841    0.280743
H     -1.599768   -1.052773   -2.378213
H     -0.942634   -2.409964   -1.496491
H     -3.362578   -2.312147   -3.310543
H     -2.051966   -3.486933   -3.233606
H     -5.433922   -3.000491   -1.719847
H     -4.759756   -3.612380   -0.210216
H     -4.698457   -1.320822    0.209674
H     -4.445132   -0.914495   -1.487677
H     -0.350499   -2.354563    0.681100
H     -0.705261   -1.524813    2.191420
H      1.562119   -1.918650    2.383520
H      1.865956   -1.806800    0.651196
H      3.068676   -0.030620   -2.903016
H      2.792265    1.463038   -2.012996
H      2.368753   -0.101819   -1.284637
