56

C     -6.983355   -1.604497    0.260543
C     -6.569194   -0.654493   -0.790216
C     -5.729710    0.438070   -0.822010
C     -4.971840    0.978496    0.279373
O     -5.379621    1.987991    0.845602
N     -3.799009    0.281264    0.641893
C     -3.117610   -0.717226   -0.279659
C     -1.958920   -0.189584   -1.195448
O     -2.178460    0.583792   -2.125877
N     -0.669414   -0.511066   -0.788460
C      0.507133    0.356982   -0.956661
C      1.129237    0.827321    0.409857
C      2.439201    0.668317    0.712236
C      3.491631    0.114514   -0.116700
C      4.750534   -0.063857    0.323089
F      5.016575    0.285616    1.608662
C      5.924482   -0.628045   -0.471383
C      6.413679   -1.902694    0.239592
C      7.056199    0.415943   -0.467733
C      5.596125   -0.981484   -1.934449
C      0.249648    1.513974    1.567627
C     -1.222335    1.053741    1.435939
C     -0.977274   -0.437260    1.901932
C     -1.625982    2.120958    0.350046
S     -2.918614    0.997664    2.125448
C     -5.847971    0.918712   -2.140531
N     -6.653562    0.152651   -2.881658
O     -7.115890   -0.833530   -2.024401
H     -6.126473   -1.898764    0.875218
H     -7.733979   -1.146953    0.912406
H     -7.413774   -2.513736   -0.172219
H     -2.819725   -1.601733    0.283026
H     -3.852564   -1.112068   -0.987372
H     -0.517266   -1.399548   -0.331449
H      0.268372    1.215618   -1.589527
H      1.213354   -0.255940   -1.521645
H      2.779862    1.009417    1.692560
H      3.248194   -0.149611   -1.137380
H      7.283934   -2.331717   -0.270338
H      5.630290   -2.669702    0.262789
H      6.708978   -1.698884    1.275935
H      6.742447    1.342827   -0.963596
H      7.366293    0.673299    0.552600
H      7.941736    0.040939   -0.994835
H      6.477143   -1.383573   -2.448548
H      5.266459   -0.099758   -2.496181
H      4.808648   -1.741151   -1.998799
H      0.659337    1.251119    2.553628
H      0.375335    2.603541    1.492849
H     -1.752543   -1.189773    1.767128
H     -0.809481   -0.432468    2.994980
H     -0.063616   -0.918598    1.540952
H     -1.764359    3.092980    0.856782
H     -2.536787    2.005021   -0.235744
H     -0.860793    2.357131   -0.390747
H     -5.374706    1.779814   -2.594667
