45

C      1.231571   -3.133750   -0.251905
C      0.005902   -2.353201    0.149699
C     -1.105393   -3.001811    0.527964
C     -2.258831   -2.161097    0.930544
C     -3.376981   -2.857186    1.668876
N     -2.382542   -0.895968    0.727985
C     -1.291557   -0.246002   -0.010856
N     -1.631523   -0.050834   -1.406734
C     -2.669697    0.827318   -1.678154
C     -2.641330    2.159631   -1.280950
C     -3.691333    3.001958   -1.637585
C     -4.736254    2.496648   -2.395826
C     -4.679020    1.166909   -2.768169
N     -3.670556    0.332258   -2.433912
N      0.001518   -0.963277    0.036694
C      1.153993   -0.146268    0.118177
C      1.385045    0.887725   -0.798437
C      2.517669    1.702540   -0.703641
C      3.455356    1.508629    0.318544
C      4.598597    2.316780    0.428184
C      5.521662    2.110396    1.454147
C      5.310233    1.097921    2.384065
C      4.178385    0.286360    2.287782
C      3.243268    0.476669    1.257086
C      2.099190   -0.334125    1.141770
H      1.991654   -3.106322    0.532889
H      0.994900   -4.187120   -0.439357
H      1.661270   -2.734291   -1.176284
H     -1.171864   -4.077738    0.609964
H     -3.330562   -2.582230    2.725886
H     -4.340791   -2.540785    1.260098
H     -3.300519   -3.944377    1.581390
H     -1.149235    0.722131    0.485483
H     -1.924255   -0.942630   -1.786693
H     -1.804783    2.555656   -0.716489
H     -3.684088    4.044701   -1.333585
H     -5.567045    3.122775   -2.696984
H     -5.463797    0.721111   -3.372736
H      0.694391    1.055774   -1.623282
H      2.661049    2.486598   -1.444196
H      4.778851    3.113083   -0.287818
H      6.404202    2.741048    1.525603
H      6.027608    0.935311    3.183108
H      4.031557   -0.500797    3.023829
H      1.924085   -1.110119    1.883827
