38

C     -6.006878    0.887213   -1.639346
C     -4.565526    0.584325   -1.329974
C     -3.888251   -0.356293   -2.120295
C     -2.556233   -0.694339   -1.860635
C     -1.871295   -0.102534   -0.803715
N     -0.529822   -0.383037   -0.468000
C      0.348413   -1.224201   -1.129366
O      0.084037   -1.900303   -2.121894
C      1.688429   -1.389407   -0.467794
S      2.478750    0.170103   -0.250034
O      1.655337    0.931600    0.676311
O      2.855123    0.709468   -1.539520
C      3.989653   -0.232346    0.594873
C      4.218671    0.256524    1.884516
C      5.402274   -0.075697    2.542847
C      6.348124   -0.890373    1.914897
C      6.114474   -1.360814    0.620717
I      7.529255   -2.566420   -0.308121
C      4.939135   -1.030179   -0.052227
C     -2.546016    0.827927   -0.002180
C     -3.892822    1.173588   -0.240986
C     -4.572915    2.176118    0.666180
F     -5.759364    1.723643    1.162718
F     -3.827763    2.514098    1.755595
F     -4.851708    3.349859    0.035247
H     -6.660797    0.282655   -1.002008
H     -6.238742    0.661523   -2.686788
H     -6.233583    1.947572   -1.489844
H     -4.393582   -0.839964   -2.955524
H     -2.087714   -1.425225   -2.510952
H     -0.154747    0.166159    0.305865
H      2.329117   -2.003266   -1.107096
H      1.559854   -1.874136    0.502217
H      3.494840    0.900387    2.379756
H      5.591949    0.303839    3.546495
H      7.265223   -1.140665    2.443637
H      4.769036   -1.376786   -1.068855
H     -2.023936    1.299383    0.829940
