42

C      4.138601    2.981785   -0.130702
C      3.847804    1.537149   -0.055916
N      2.602538    1.052006   -0.008229
N      2.827877   -0.275806    0.054474
C      1.708810   -1.208352    0.108908
C      0.675735   -0.819658    1.178571
C     -0.474911   -0.029690    0.572548
N     -1.193276   -0.826860   -0.469707
S     -2.747366   -1.413326   -0.023872
O     -3.267513   -2.165476   -1.144803
O     -2.564828   -2.007795    1.282663
C     -3.740756    0.048524    0.112104
C     -3.387436    1.178643   -0.646984
C     -4.136304    2.350741   -0.546372
C     -5.236712    2.385788    0.299202
F     -5.957146    3.510010    0.396000
C     -5.610116    1.268428    1.036644
C     -4.866066    0.086965    0.941767
Cl    -5.455445   -1.264052    1.837999
C     -0.360990   -1.848252   -1.162436
C      1.078593   -1.374313   -1.280606
C      4.171417   -0.548203    0.033934
C      4.757360   -1.906785    0.074419
N      4.832889    0.588464   -0.031849
H      5.217067    3.161175   -0.181230
H      3.749092    3.498239    0.752081
H      3.679287    3.421002   -1.021615
H      2.131740   -2.172257    0.417876
H      0.274670   -1.736175    1.630982
H      1.137921   -0.251551    1.994688
H     -1.159388    0.280019    1.369508
H     -0.122014    0.894964    0.102766
H     -2.537993    1.153456   -1.326856
H     -3.872776    3.231692   -1.124605
H     -6.489256    1.328224    1.672191
H     -0.398152   -2.802930   -0.624428
H     -0.766058   -2.004373   -2.168352
H      1.101820   -0.430187   -1.841000
H      1.665193   -2.092854   -1.865908
H      4.526615   -2.399433    1.023808
H      4.373137   -2.521630   -0.745242
H      5.846335   -1.857316   -0.023868
