47

C     -5.811799   -0.326592   -0.878110
C     -4.894721    0.505622   -0.025323
C     -5.413743    1.132273    1.119591
C     -4.599469    1.910144    1.943598
C     -3.254376    2.073796    1.636180
C     -2.724754    1.464864    0.500095
C     -3.534961    0.688463   -0.350804
C     -2.890320    0.038738   -1.555539
N     -2.219189   -1.207598   -1.160113
S     -1.279563   -1.952580   -2.356532
O     -2.131634   -2.003959   -3.529538
O     -0.826365   -3.189966   -1.750829
C      0.083469   -0.910830   -2.673022
F      0.303766   -0.481074   -3.939934
C      0.917061   -0.468582   -1.715476
C      0.917155   -0.764947   -0.297153
C      1.683139   -0.196623    0.659577
C      1.531137   -0.666485    2.088663
C      2.686004    0.937491    0.487864
F      2.429151    1.660700   -0.644257
C      4.125112    0.456250    0.521685
C      4.882473    0.535945    1.703313
C      6.201424    0.081601    1.729158
C      6.766105   -0.451991    0.577632
F      8.031832   -0.886016    0.604850
C      6.037590   -0.540579   -0.601347
C      4.718651   -0.087061   -0.630177
H     -6.791519   -0.461174   -0.403666
H     -5.970881    0.160298   -1.845805
H     -5.388054   -1.323404   -1.034322
H     -6.462408    1.013652    1.382605
H     -5.016467    2.384513    2.827911
H     -2.617183    2.673776    2.280889
H     -1.667243    1.593979    0.277926
H     -3.638361   -0.160810   -2.329266
H     -2.168547    0.742750   -1.985981
H     -2.856950   -1.891286   -0.752640
H      1.701010    0.194293   -2.071309
H      0.233752   -1.552396    0.021862
H      1.275742    0.175120    2.741151
H      0.740842   -1.416157    2.201152
H      2.460957   -1.118397    2.446100
H      2.536477    1.655901    1.302864
H      4.451136    0.953363    2.610840
H      6.791612    0.140640    2.637383
H      6.499268   -0.959898   -1.489140
H      4.153644   -0.155767   -1.556945
