40

C     -4.807155    2.246388   -0.912802
C     -3.728099    1.285872   -0.510165
C     -3.194490    0.389315   -1.440769
C     -2.165749   -0.482574   -1.075906
C     -1.641101   -0.472995    0.226225
C     -0.517797   -1.405066    0.645385
C     -0.805943   -2.892260    0.322060
N      0.044491   -3.252554   -0.853748
C      0.852577   -2.238065   -0.971233
N      1.810538   -2.192354   -1.914232
N      0.717483   -1.196273   -0.110157
C      1.280984    0.139188   -0.261263
C      1.770278    0.720067    1.079367
C      2.916628   -0.067573    1.704962
C      4.137809    0.632683    1.164629
C      3.682032    2.073088    1.137764
O      2.277201    2.054254    0.853017
C     -2.169465    0.442317    1.149499
C     -3.198284    1.314836    0.783650
H     -5.450135    2.491052   -0.060777
H     -5.447358    1.812217   -1.687963
H     -4.362265    3.169399   -1.297060
H     -3.573086    0.363013   -2.460185
H     -1.766157   -1.167629   -1.822698
H     -0.328738   -1.306922    1.721111
H     -1.859863   -3.095283    0.105704
H     -0.503242   -3.529474    1.161673
H      1.877204   -3.090092   -2.383059
H      2.711118   -1.908298   -1.555156
H      2.123362    0.137953   -0.963147
H      0.552962    0.822412   -0.714667
H      0.933669    0.796427    1.781473
H      2.901194   -1.139420    1.490908
H      2.886566    0.052799    2.795154
H      5.034568    0.480905    1.770948
H      4.348718    0.284429    0.146983
H      3.819453    2.550971    2.113692
H      4.203786    2.666298    0.381771
H     -1.780896    0.490629    2.164393
H     -3.582799    2.020321    1.516993
