60

C     -2.875637   -1.518115   -2.343571
C     -2.384448   -0.508481   -1.362305
C     -1.095538   -0.403924   -0.987340
C     -0.942175    0.702783    0.006424
C     -0.229373    0.317691    1.252017
C     -0.624105   -0.719960    2.005112
C      0.093286   -1.042258    3.258437
O     -0.468213   -0.793433    4.322466
N      1.342396   -1.632158    3.151133
C      2.089269   -1.900872    4.369604
C      1.970608   -2.047482    1.897606
C      3.045022   -1.083499    1.496285
C      4.501321   -1.441174    1.607474
C      3.855289   -1.359841    0.242881
C      4.174913   -0.217503   -0.691383
C      5.496495    0.082684   -1.059159
C      5.788864    1.135556   -1.931257
C      4.758714    1.908304   -2.460405
C      3.439282    1.626228   -2.120089
C      3.154104    0.572190   -1.249078
O     -0.484514    1.959456   -0.563566
C     -1.792060    2.570654   -0.385562
C     -2.296781    3.155671   -1.690593
C     -2.391768    1.268287    0.179053
N     -3.191224    0.454175   -0.742655
C     -4.648060    0.577325   -0.679892
C     -5.288385    0.678215   -2.059236
C     -5.259125   -0.542887    0.157955
H     -3.200625   -1.029808   -3.267784
H     -3.702150   -2.104071   -1.934822
H     -2.084190   -2.227043   -2.610198
H     -0.277305   -1.010441   -1.343842
H      0.620261    0.928172    1.540450
H     -1.497695   -1.322147    1.788061
H      1.563079   -1.553559    5.262692
H      3.056463   -1.392415    4.318119
H      2.248920   -2.980237    4.453777
H      1.228753   -2.118950    1.097546
H      2.369660   -3.059467    2.037231
H      2.771386   -0.053312    1.694875
H      5.187774   -0.658472    1.909196
H      4.772571   -2.422869    1.978934
H      3.681427   -2.313432   -0.252002
H      6.314290   -0.512238   -0.657415
H      6.821103    1.350630   -2.195093
H      4.983450    2.727729   -3.137822
H      2.625615    2.221585   -2.526840
H      2.115181    0.369619   -0.997975
H     -1.729791    3.356343    0.381127
H     -1.696150    4.024309   -1.976057
H     -2.246870    2.433263   -2.510978
H     -3.334557    3.488113   -1.588496
H     -2.793764    1.313603    1.195342
H     -4.878593    1.522354   -0.168567
H     -6.334834    0.987723   -1.968751
H     -5.285665   -0.276528   -2.592801
H     -4.772046    1.417558   -2.680347
H     -6.324546   -0.353547    0.332073
H     -4.765190   -0.618559    1.132963
H     -5.174117   -1.516398   -0.332952
