57

C     -3.768238   -4.011585   -1.530618
C     -3.217574   -2.626468   -1.348912
C     -3.627126   -1.589754   -2.104780
C     -3.034738   -0.208778   -1.952482
C     -4.114646    0.754434   -1.450703
O     -4.608337    1.616551   -2.175310
N     -4.506752    0.553291   -0.144085
C     -5.454668    1.420750    0.528057
C     -6.188175    0.657244    1.627239
C     -4.744798    2.648213    1.098042
C     -1.792927   -0.185704   -1.034683
N     -1.970754   -1.066322    0.137488
C     -0.903870   -0.911628    1.147449
C      0.536660   -1.028943    0.609397
O      0.873417   -1.915225   -0.170270
N      1.373118   -0.051918    1.131351
C      2.740128    0.152141    0.849071
C      3.458719   -0.568343   -0.103676
C      4.817450   -0.306685   -0.318033
C      5.486373    0.684714    0.412543
C      6.963643    0.934565    0.168404
C      7.801105    0.510668    1.378315
C      7.247191    2.391051   -0.202093
C      4.760609    1.406900    1.366282
C      3.402698    1.146647    1.577994
C     -2.160535   -2.469024   -0.273728
H     -4.537361   -4.051505   -2.310794
H     -4.222985   -4.365943   -0.597950
H     -2.967607   -4.702529   -1.814920
H     -4.392859   -1.717074   -2.866143
H     -2.724061    0.144766   -2.945276
H     -3.965706   -0.121941    0.395954
H     -6.190205    1.757214   -0.212435
H     -5.502887    0.321634    2.411181
H     -6.681888   -0.233134    1.217196
H     -6.955954    1.288065    2.092004
H     -5.466408    3.339653    1.547037
H     -4.202033    3.188379    0.312930
H     -4.018814    2.364304    1.869249
H     -0.916703   -0.497179   -1.620128
H     -1.608227    0.844562   -0.701569
H     -1.040960    0.069917    1.617866
H     -1.023480   -1.650991    1.950031
H      0.980786    0.563239    1.832598
H      2.996048   -1.345990   -0.704186
H      5.350127   -0.897862   -1.059476
H      7.285180    0.321679   -0.684218
H      8.870107    0.613938    1.164652
H      7.612666   -0.534878    1.640358
H      7.577963    1.119210    2.261533
H      6.640730    2.702414   -1.059293
H      8.301895    2.520761   -0.470302
H      7.031595    3.075502    0.624896
H      5.246386    2.177896    1.960995
H      2.878461    1.732773    2.329033
H     -1.238604   -2.927967   -0.641993
H     -2.483176   -3.035709    0.608949
