48

C      0.138802   -1.908867   -1.866746
C      1.021435   -1.044114   -1.039926
C      2.241446   -1.300092   -0.535776
C      2.958718   -2.608678   -0.611615
N      2.717505   -0.199466    0.168849
C      4.010385    0.079663    0.687097
C      5.177938   -0.462287    0.127576
C      6.445241   -0.175095    0.649833
C      6.574284    0.673723    1.743787
C      5.438161    1.243093    2.307132
C      4.175003    0.953069    1.779349
N      1.689862    0.778329    0.319497
C      0.626971    0.354255   -0.652588
C     -0.737960    0.413231    0.084979
O     -0.800106    0.136189    1.290920
N     -1.874745    0.787797   -0.623352
C     -1.928972    1.050485   -2.055326
C     -3.124173    0.880709    0.125360
C     -3.813249   -0.486504    0.227898
C     -5.156362   -0.359984    0.939707
C     -5.994775    0.747192    0.311317
C     -5.190526    2.035473    0.200987
O     -3.985081    1.816187   -0.530172
H     -0.085985   -1.421151   -2.819910
H      0.597712   -2.872726   -2.102300
H     -0.803049   -2.109245   -1.347026
H      3.493350   -2.821207    0.319844
H      2.266797   -3.443697   -0.759047
H      3.668395   -2.616869   -1.443685
H      5.126611   -1.089162   -0.755311
H      7.329649   -0.608082    0.190140
H      7.556846    0.899346    2.148593
H      5.527217    1.915571    3.155923
H      3.306953    1.413817    2.243397
H      1.281152    0.639041    1.252353
H      0.668853    1.043514   -1.498442
H     -2.045742    2.127051   -2.210198
H     -2.782184    0.519646   -2.488675
H     -1.034439    0.719779   -2.579885
H     -2.902904    1.262781    1.130491
H     -3.990033   -0.887249   -0.778596
H     -3.177706   -1.208940    0.751963
H     -5.696507   -1.312123    0.897848
H     -4.986291   -0.131764    1.999040
H     -6.905130    0.914398    0.896303
H     -6.299253    0.427454   -0.692901
H     -4.951645    2.444341    1.189821
H     -5.772469    2.791169   -0.336104
