56

C      7.712979   -1.723106   -0.540606
C      6.559113   -0.763647   -0.516640
C      5.719541   -0.639120   -1.625988
C      4.635495    0.237368   -1.591658
C      4.368613    0.986688   -0.436012
S      2.963607    2.087367   -0.469445
O      3.376041    3.363111    0.074692
O      2.346718    2.015715   -1.778778
N      1.875393    1.359968    0.628520
C      1.488273   -0.053309    0.294313
C      0.137035   -0.463861    0.910135
N     -0.943492    0.417385    0.441245
C     -2.264694    0.005376    0.399333
C     -2.718554   -1.116590    1.108900
C     -4.058273   -1.530508    1.073271
C     -5.002566   -0.842052    0.303152
C     -4.559300    0.262712   -0.420820
C     -3.226497    0.687037   -0.360852
O     -5.422157    1.019336   -1.160629
C     -5.894155    0.329503   -2.326848
C     -6.518823   -1.040746   -2.057076
O     -7.252474   -1.012461   -0.837133
C     -6.452817   -1.288491    0.324390
C     -7.179133   -0.647604    1.493884
O     -7.413680   -1.225247    2.554615
C     -0.571163    1.817406    0.160632
C      0.688756    2.224971    0.945566
C      5.191477    0.867648    0.699579
C      4.983286    1.662919    1.958446
C      6.284088   -0.016471    0.637921
H      7.395750   -2.698568   -0.159369
H      8.096635   -1.849045   -1.558534
H      8.540358   -1.353392    0.074164
H      5.909624   -1.216669   -2.528367
H      4.005754    0.329866   -2.474526
H      1.427262   -0.182617   -0.792449
H      2.267459   -0.721807    0.675998
H     -0.051904   -1.503355    0.616703
H      0.193416   -0.422031    2.004613
H     -2.040759   -1.680806    1.744017
H     -4.356573   -2.389866    1.672441
H     -2.949906    1.557581   -0.949004
H     -5.093382    0.257682   -3.072665
H     -6.665201    0.980749   -2.754507
H     -5.770004   -1.842285   -2.044107
H     -7.213685   -1.282425   -2.868641
H     -6.488776   -2.376464    0.462021
H     -7.449339    0.414318    1.359385
H     -0.402452    1.935225   -0.915946
H     -1.373952    2.502306    0.458865
H      0.504655    2.138061    2.023974
H      0.908762    3.281509    0.760210
H      3.950693    1.591578    2.309087
H      5.612801    1.287237    2.772934
H      5.251128    2.710854    1.795047
H      6.939000   -0.121882    1.502547
