76

C     -3.846028    4.399679    2.384358
C     -4.771160    4.087661    1.238075
C     -5.921134    4.879462    1.067490
C     -6.817206    4.619026    0.032977
C     -6.567168    3.567130   -0.839167
Cl    -7.668216    3.245789   -2.122679
C     -5.428640    2.776179   -0.687261
C     -4.507286    3.026012    0.341381
N     -3.366182    2.215074    0.524234
C     -3.096463    0.882413    0.163444
C     -1.776603    0.509670   -0.118781
C     -1.475558   -0.795822   -0.526787
C     -0.083904   -1.216649   -0.840367
O      0.110081   -2.109137   -1.656779
N      0.919669   -0.577921   -0.138032
C      2.298363   -1.034288   -0.250965
C      3.276041    0.050321    0.184305
C      4.715932   -0.424897    0.101141
O      4.967001   -1.575951   -0.257055
N      5.719854    0.486687    0.455290
C      5.452331    1.871811    0.910300
C      6.049671    2.912095   -0.039620
C      5.908765    2.091076    2.354741
C      7.129057    0.059083    0.359439
C      7.492739   -1.176978    1.205613
C      8.155543   -2.157851    0.241699
C      8.693349   -1.285001   -0.880421
C      7.597253   -0.248019   -1.071077
C     -2.499828   -1.736682   -0.687966
C     -3.827140   -1.389916   -0.420238
C     -4.932691   -2.341503   -0.574799
N     -6.152821   -2.191946   -0.089131
C     -6.862328   -3.299005   -0.481466
C     -8.198784   -3.644049   -0.235821
C     -8.688259   -4.847029   -0.760901
C     -7.863764   -5.687421   -1.513817
C     -6.527232   -5.357760   -1.769417
C     -6.067605   -4.153615   -1.232476
N     -4.851691   -3.522759   -1.280682
C     -4.103074   -0.081492    0.014273
H     -2.887620    4.767998    2.005014
H     -3.679901    3.507267    2.996491
H     -4.263477    5.170118    3.041553
H     -6.130271    5.702013    1.748532
H     -7.704116    5.235550   -0.084678
H     -5.249292    1.976942   -1.400899
H     -2.579907    2.707519    0.929773
H     -0.988157    1.254588   -0.058872
H      0.653608   -0.124109    0.725829
H      2.395367   -1.927230    0.377460
H      2.492080   -1.338146   -1.286250
H      3.148624    0.923035   -0.466049
H      3.057542    0.337173    1.219272
H      4.375901    2.052113    0.910118
H      7.143744    2.889206   -0.045618
H      5.706154    2.739706   -1.065551
H      5.742896    3.921516    0.254761
H      6.996339    2.030391    2.460294
H      5.596805    3.078955    2.711045
H      5.467919    1.337159    3.016149
H      7.757943    0.876965    0.729878
H      6.643311   -1.633164    1.723629
H      8.211557   -0.882929    1.981280
H      7.408668   -2.856008   -0.153307
H      8.941335   -2.745613    0.724741
H      8.889964   -1.854841   -1.792819
H      9.626010   -0.799310   -0.570612
H      7.967405    0.649120   -1.577791
H      6.796984   -0.661150   -1.693698
H     -2.234256   -2.740405   -1.010419
H     -8.832345   -2.985186    0.347471
H     -9.723431   -5.126514   -0.579891
H     -8.269112   -6.616022   -1.910625
H     -5.888444   -6.009062   -2.355977
H     -4.040160   -3.857810   -1.775611
H     -5.134551    0.176689    0.253586
