53

C      8.382862    1.805974    0.931441
C      6.945634    1.510089    0.620293
C      5.918293    1.997466    1.431364
C      4.583937    1.691911    1.142869
C      4.252522    0.889569    0.044586
N      2.884176    0.625847   -0.169119
C      2.318587   -0.140454   -1.176033
O      2.912039   -0.712180   -2.083614
C      0.808908   -0.205314   -1.041320
C      0.199809   -1.109768   -2.116677
N     -1.251911   -1.251484   -2.016077
C     -1.715424   -2.079892   -1.004705
O     -0.982880   -2.613569   -0.179699
O     -3.062687   -2.186786   -0.972727
C     -3.755915   -1.847313    0.252779
C     -3.242689   -2.667456    1.455742
C     -5.216549   -2.306251    0.033946
C     -3.732031   -0.311637    0.419091
C     -3.435049    0.267244    1.669481
C     -3.558109    1.643830    1.886411
C     -4.000816    2.476070    0.865878
C     -4.294499    1.940066   -0.383263
C     -4.116433    0.572293   -0.623350
N     -4.416273    0.112634   -1.916418
C     -3.487539   -0.404677   -2.803383
O     -3.810741   -0.886993   -3.883282
C     -2.003676   -0.186169   -2.510082
O     -1.548066    0.930510   -2.755743
C      5.279756    0.397722   -0.760035
C      6.615651    0.702394   -0.472665
H      8.916319    2.107779    0.024031
H      8.474905    2.624156    1.654253
H      8.864342    0.917367    1.353290
H      6.146409    2.619621    2.293797
H      3.811098    2.090094    1.794640
H      2.246346    1.045004    0.495946
H      0.568457   -0.578633   -0.040221
H      0.413199    0.812836   -1.120397
H      0.436849   -0.714109   -3.113161
H      0.645504   -2.111321   -2.060188
H     -3.155829   -3.728220    1.192417
H     -3.918588   -2.587326    2.315733
H     -2.255200   -2.340480    1.797188
H     -5.260975   -3.396836   -0.081856
H     -5.655476   -1.897996   -0.881725
H     -5.860489   -2.022247    0.874093
H     -3.130059   -0.340683    2.518001
H     -3.326959    2.060288    2.864168
H     -4.118667    3.543217    1.041684
H     -4.623355    2.606325   -1.177901
H     -5.166092    0.568361   -2.423124
H      5.080265   -0.231161   -1.621564
H      7.397105    0.300292   -1.114372
