46

C      8.275279    0.107980    1.230557
C      7.267315   -0.112720    0.174366
N      5.958717   -0.039011    0.272332
C      5.511377   -0.332262   -1.000372
C      4.091743   -0.358488   -1.339044
C      3.663811   -0.663685   -2.636124
C      2.303105   -0.684371   -2.942019
C      1.354788   -0.400072   -1.955646
C      1.758059   -0.091938   -0.656226
N      0.869247    0.205045    0.398691
C     -0.512750    0.269599    0.347544
O     -1.218772    0.101289   -0.641806
C     -1.108103    0.610258    1.703436
C     -2.632129    0.558283    1.690049
N     -3.163755    1.667593    0.881977
S     -4.792463    2.063158    1.026610
O     -5.071469    2.285600    2.428309
O     -5.078111    3.060833    0.020783
C     -5.602513    0.559317    0.532332
C     -5.592816    0.194228   -0.819811
C     -6.229625   -0.982452   -1.215136
C     -6.871370   -1.770133   -0.263307
F     -7.481730   -2.898888   -0.646455
C     -6.893052   -1.403735    1.079937
C     -6.257954   -0.229216    1.485235
C      3.127936   -0.074554   -0.357760
N      6.501531   -0.585085   -1.871626
N      7.593235   -0.439070   -1.108556
H      7.790713    0.358118    2.179341
H      8.942555    0.932593    0.961626
H      8.878177   -0.792399    1.383534
H      4.388867   -0.887069   -3.416307
H      1.977824   -0.922318   -3.951830
H      0.307712   -0.429370   -2.239055
H      1.304391    0.410847    1.290405
H     -0.759503    1.607462    1.996553
H     -0.733330   -0.117887    2.432349
H     -2.974638   -0.396703    1.278096
H     -2.992212    0.645098    2.720368
H     -2.852185    1.674895   -0.095135
H     -5.098261    0.817949   -1.561448
H     -6.233715   -1.288598   -2.256905
H     -7.408560   -2.033166    1.798989
H     -6.281229    0.063291    2.532791
H      3.464713    0.163111    0.649397
H      8.509148   -0.574333   -1.521036
