38

C      6.707210   -0.320513   -1.098325
C      5.378233   -0.829305   -0.674474
C      4.687889   -1.886123   -1.235455
S      3.199207   -2.118325   -0.422260
C      3.571863   -0.793094    0.610844
C      2.614109   -0.374645    1.687715
C      1.484276    0.492566    1.177058
C      0.189724   -0.030574    1.019525
C     -0.859711    0.764606    0.535706
N     -2.125206    0.154546    0.413203
C     -3.285276    0.723396   -0.069902
O     -3.431687    1.839633   -0.542502
C     -4.459891   -0.210748   -0.058232
C     -4.745900   -0.872699   -1.389173
C     -4.781173   -1.014068    1.190706
C     -5.630629    0.179056    0.838613
Cl    -5.530297    1.538032    1.961535
Cl    -7.290855   -0.145386    0.332666
C     -0.602713    2.096649    0.211328
C      0.682350    2.625570    0.358230
C      1.720955    1.829214    0.835356
N      4.736100   -0.216939    0.388565
H      6.750786   -0.212935   -2.186970
H      7.495257   -1.012242   -0.784612
H      6.912277    0.658233   -0.653088
H      4.980296   -2.515852   -2.063308
H      2.211533   -1.258760    2.198514
H      3.160216    0.182528    2.460281
H      0.008937   -1.071907    1.275581
H     -2.175150   -0.817164    0.686945
H     -5.114453   -0.133826   -2.108363
H     -3.828038   -1.312992   -1.793528
H     -5.483250   -1.678355   -1.312717
H     -5.218723   -2.000178    1.081609
H     -4.137195   -0.931624    2.059402
H     -1.380393    2.756393   -0.160733
H      0.870533    3.663715    0.095309
H      2.718790    2.254116    0.933546
