46

C      1.341168    0.752923    2.425398
C      2.473361    0.609313    1.477336
C      2.470206    0.249007    0.133255
C      1.384406   -0.134308   -0.732354
O      1.344799    0.129932   -1.929847
N      0.385196   -0.849568   -0.115461
C     -0.754842   -1.401781   -0.841774
C     -2.116834   -1.112782   -0.138806
O     -1.986125   -1.640974    1.197566
C     -2.516917    0.368469   -0.051606
C     -3.504691    0.771518    0.871992
C     -3.902542    2.107332    0.976512
C     -3.325533    3.064919    0.150436
Cl    -3.810613    4.709958    0.275981
C     -2.362009    2.694472   -0.781629
C     -1.966403    1.355957   -0.886715
C     -3.218612   -1.859677   -0.876576
C     -3.379314   -3.358855   -0.747895
C     -4.423317   -2.444919   -0.171314
N      3.791578    0.378246   -0.265183
C      4.392806    0.170369   -1.511290
C      5.719197    0.338487   -1.645728
C      6.501332    0.730751   -0.485986
C      5.923737    0.928067    0.714152
C      4.518353    0.752905    0.862797
N      3.744999    0.888768    1.915391
H      1.618507    1.399740    3.264011
H      0.470818    1.200135    1.935345
H      1.055825   -0.222462    2.830551
H      0.563198   -1.237228    0.801076
H     -0.759657   -1.063319   -1.883327
H     -0.576088   -2.484129   -0.863628
H     -1.736251   -0.894546    1.767170
H     -3.981895    0.035800    1.518255
H     -4.664677    2.388732    1.698296
H     -1.913901    3.438540   -1.435685
H     -1.220006    1.113461   -1.640147
H     -3.384216   -1.442361   -1.866721
H     -3.634138   -3.921731   -1.638543
H     -2.745937   -3.896291   -0.050450
H     -4.487289   -2.382730    0.908926
H     -5.381679   -2.383914   -0.674225
H      3.758954   -0.121122   -2.339431
H      6.221709    0.190169   -2.595620
H      7.571412    0.862559   -0.614640
H      6.501926    1.222166    1.582486
