26

C     -4.444757   -0.234507   -0.362686
C     -2.987954   -0.112821   -0.028564
C     -2.344763    1.127245   -0.099836
C     -0.998984    1.236472    0.242054
F     -0.406728    2.436314    0.152873
C     -0.265422    0.129166    0.674608
C      1.193810    0.262808    1.022243
C      2.091581    0.044015   -0.197825
C      3.565536    0.178764    0.178961
N      4.412404   -0.033891   -0.988716
C     -0.911859   -1.110454    0.753263
C     -2.263231   -1.227672    0.411901
H     -4.671112   -1.227277   -0.765625
H     -4.733765    0.498106   -1.123591
H     -5.049391   -0.070026    0.534455
H     -2.877136    2.017046   -0.422585
H      1.445826   -0.459404    1.809388
H      1.378076    1.253763    1.456144
H      1.904721   -0.951594   -0.621351
H      1.840113    0.772033   -0.980249
H      3.760928    1.177628    0.583573
H      3.826953   -0.551537    0.952664
H      5.391977    0.008137   -0.710937
H      4.258910   -0.969300   -1.362846
H     -0.368702   -1.993592    1.082154
H     -2.747030   -2.199421    0.489532
