47

C      7.799760   -1.353025    0.373843
C      6.664611   -0.415555    0.550886
N      6.865785    0.801067    1.073787
N      5.639997    1.353009    1.082171
C      4.656128    0.542814    0.583480
C      3.278828    0.747763    0.423861
C      2.527769   -0.297488   -0.126238
N      1.136165   -0.218156   -0.345102
C      0.297174    0.835136   -0.035865
O      0.576794    1.878067    0.539400
C     -1.116610    0.605978   -0.410718
C     -2.039941    0.619925    0.635310
C     -3.367606    0.356772    0.348446
C     -4.427503    0.337460    1.379173
C     -5.549149   -0.502221    1.240249
C     -6.559209   -0.541183    2.206357
C     -6.472892    0.266253    3.335710
C     -5.381405    1.114393    3.495494
C     -4.372012    1.150607    2.527025
N     -3.769312    0.075965   -0.917132
C     -2.884873    0.099501   -1.928497
C     -3.346159   -0.156370   -3.212933
C     -2.498525   -0.133890   -4.322826
C     -1.153256    0.158620   -4.153833
C     -0.663948    0.415175   -2.874777
C     -1.518936    0.373749   -1.742638
C      3.159348   -1.493166   -0.497300
C      4.540503   -1.677880   -0.329037
C      5.298841   -0.633269    0.223842
H      7.915324   -1.616005   -0.682479
H      8.742486   -0.915499    0.718373
H      7.626526   -2.272612    0.941892
H      5.537983    2.294187    1.443973
H      2.836392    1.690557    0.721678
H      0.705041   -1.038918   -0.754651
H     -1.705454    0.811189    1.650008
H     -5.640566   -1.141234    0.362924
H     -7.412271   -1.200724    2.070619
H     -7.258387    0.239974    4.086214
H     -5.315657    1.755761    4.370815
H     -3.547210    1.844063    2.677032
H     -4.403337   -0.371492   -3.355899
H     -2.897651   -0.332127   -5.314391
H     -0.488332    0.197431   -5.013266
H      0.389692    0.669231   -2.771611
H      2.585477   -2.311550   -0.926121
H      5.009577   -2.612287   -0.621586
