47

C      3.264775   -0.021169    3.313974
C      3.377597    0.464510    1.896230
C      4.656923    0.499756    1.312470
C      4.845948    0.965073    0.009727
C      3.762520    1.421595   -0.732194
C      2.487011    1.409552   -0.172560
C      2.286100    0.920714    1.130205
S      0.612493    0.954813    1.759491
O     -0.170227    1.848673    0.933104
O      0.662170    1.150101    3.192731
N      0.002714   -0.632207    1.541020
C      0.578127   -1.447614    0.511354
C      1.552200   -2.504335    0.960496
C      0.087868   -1.287114   -0.735979
C     -1.009163   -0.361420   -1.221704
C     -2.380251   -0.483143   -0.522117
C     -2.958777   -1.899934   -0.625809
C     -3.330629    0.544090   -1.117296
C     -3.494052    1.782479   -0.497928
C     -4.341514    2.721478   -1.079062
C     -4.996811    2.406964   -2.262227
C     -4.771189    1.161117   -2.820444
N     -3.953153    0.231011   -2.280595
C      0.641768   -2.084434   -1.773199
N      0.681140   -2.463770   -2.963867
O      1.591819   -2.952566   -1.931279
H      4.171298   -0.553331    3.623713
H      2.440447   -0.730066    3.427357
H      3.129412    0.824568    3.994735
H      5.527850    0.166769    1.875701
H      5.844625    0.981972   -0.420978
H      3.911692    1.796173   -1.742294
H      1.653312    1.786784   -0.762512
H      0.016246   -1.055101    2.474192
H      2.562754   -2.273772    0.610173
H      1.587383   -2.577943    2.052414
H      1.259801   -3.493827    0.594724
H     -0.642806    0.669833   -1.173079
H     -1.169727   -0.527234   -2.297640
H     -2.285800   -0.259249    0.545981
H     -3.965036   -1.943090   -0.193717
H     -3.028247   -2.234956   -1.666841
H     -2.337712   -2.620486   -0.083918
H     -2.961903    2.022546    0.418120
H     -4.481983    3.692267   -0.612748
H     -5.662093    3.116311   -2.740435
H     -5.254920    0.867612   -3.747491
