47

C      9.284337   -0.526263   -1.272884
C      7.817646   -0.486145   -1.387993
N      7.048341   -0.724479   -2.427480
N      5.750190   -0.545818   -1.995100
C      5.818785   -0.211365   -0.721250
C      4.752986    0.092506    0.224524
C      5.017690    0.420108    1.560235
C      3.971244    0.702374    2.438932
C      2.647831    0.663134    1.994064
C      2.358244    0.345764    0.667298
N      1.051744    0.276228    0.144459
C     -0.123180    0.641654    0.764840
O     -0.242896    1.175064    1.859085
N     -1.207744    0.336481   -0.038767
C     -2.556575    0.584156    0.437978
C     -3.024798   -0.448615    1.472564
C     -4.329473   -1.022646    0.926339
C     -4.871831    0.065840   -0.009925
N     -5.903186   -0.413962   -0.945248
C     -7.076495   -0.935664   -0.236083
C     -6.330869    0.643187   -1.867949
C     -3.580059    0.526805   -0.697122
C      3.415506    0.057581   -0.206900
O      7.111595   -0.153980   -0.264025
H      9.674366    0.458560   -0.999249
H      9.589874   -1.246308   -0.507993
H      9.739076   -0.822773   -2.222772
H      6.039072    0.457953    1.932849
H      4.182440    0.953508    3.475710
H      1.862405    0.882325    2.711570
H      0.967878    0.070390   -0.839797
H     -1.085921   -0.481872   -0.617472
H     -2.576537    1.580754    0.897957
H     -2.295070   -1.244150    1.657754
H     -3.211523    0.052488    2.430006
H     -4.117825   -1.944386    0.369226
H     -5.021610   -1.270437    1.737298
H     -5.267996    0.892715    0.597458
H     -6.820032   -1.815333    0.362699
H     -7.839784   -1.271619   -0.947623
H     -7.528035   -0.183960    0.421341
H     -7.108003    0.272192   -2.546298
H     -6.726983    1.516899   -1.337827
H     -5.505803    0.968031   -2.509744
H     -3.272618   -0.193453   -1.467279
H     -3.682641    1.503813   -1.181180
H      3.206237   -0.197282   -1.244857
