59

C      2.212005   -3.145850    2.508434
C      2.845249   -1.982248    1.807381
N      4.181481   -1.829805    2.001060
C      4.780591   -0.793538    1.389121
C      6.146945   -0.593929    1.553628
C      6.805923    0.469081    0.934329
C      6.071107    1.346538    0.143401
S      6.870161    2.688536   -0.679147
N      6.412307    3.995838    0.266444
O      6.252848    2.881518   -1.969498
O      8.299104    2.564749   -0.512174
C      4.700315    1.156182   -0.039710
C      4.047288    0.100454    0.576499
N      2.727862   -0.053811    0.387028
C      2.116836   -1.109978    0.991813
C      0.609221   -1.278691    0.817808
N     -0.010718   -0.510844   -0.284268
C      0.374903   -0.991239   -1.619402
C     -0.304312   -2.299689   -2.036717
C     -1.822019   -2.206030   -1.906395
C     -2.210108   -1.722336   -0.506950
C     -3.713686   -1.542693   -0.350286
O     -4.331772   -2.129663    0.534449
N     -4.312607   -0.680708   -1.237333
C     -5.705353   -0.310428   -1.116300
C     -5.842722    1.013410   -0.407356
C     -6.020658    2.201588   -1.133707
C     -6.128816    3.424398   -0.468413
C     -6.051269    3.461088    0.919138
F     -6.157217    4.635822    1.555148
C     -5.865204    2.298551    1.655951
C     -5.759648    1.074947    0.993615
C     -1.473078   -0.425365   -0.148515
H      1.872908   -3.887207    1.779029
H      1.365110   -2.817527    3.117886
H      2.930340   -3.634744    3.175141
H      6.707526   -1.286095    2.177506
H      7.876786    0.597559    1.075275
H      5.850790    4.646103   -0.284806
H      7.235564    4.422592    0.692647
H      4.125637    1.832432   -0.668651
H      0.171324   -0.944335    1.767576
H      0.374293   -2.342983    0.709773
H      1.460936   -1.103475   -1.707340
H      0.108242   -0.212865   -2.346482
H      0.067325   -3.130953   -1.426170
H     -0.041882   -2.532336   -3.075258
H     -2.276017   -3.183352   -2.108520
H     -2.202191   -1.523076   -2.675728
H     -1.922075   -2.502479    0.211018
H     -3.738309   -0.106525   -1.838338
H     -6.112360   -0.244240   -2.131382
H     -6.272716   -1.084920   -0.588563
H     -6.080951    2.182764   -2.219394
H     -6.273587    4.346711   -1.021565
H     -5.802178    2.351239    2.737636
H     -5.609338    0.164292    1.572730
H     -1.815844    0.391591   -0.796638
H     -1.744292   -0.104027    0.865531
