71

C     -7.622652   -2.126707   -0.837920
C     -6.232285   -1.578578   -0.744492
C     -5.804038   -0.544399   -1.585464
C     -4.496666   -0.042371   -1.486583
C     -3.591901   -0.576797   -0.558160
C     -2.221184   -0.025281   -0.442271
C     -1.798970    0.622377    0.666826
C     -2.554257    0.895574    1.902960
C     -3.747773    1.632466    1.895558
C     -4.402472    1.923582    3.094845
C     -3.860451    1.482763    4.297483
F     -4.474767    1.778708    5.447515
C     -2.672940    0.756257    4.322169
C     -2.018882    0.462249    3.127265
C     -1.296685   -0.151700   -1.622291
O     -1.682068   -0.493709   -2.730997
O     -0.008193    0.156486   -1.299994
C      0.902935    0.223471   -2.410563
C      0.863653    1.638138   -3.008453
O      0.193368    1.875306   -4.013970
N      1.524402    2.680978   -2.460532
C      2.259906    2.839346   -1.218635
C      2.346590    1.663117   -0.263165
C      3.045116    0.386299   -0.789034
C      4.494817    0.769194   -1.123352
C      5.646607    0.628495   -0.451193
C      5.885727    0.163721    0.885009
C      5.034452   -0.369033    1.763317
O      5.457904   -0.636770    3.066343
C      4.279962   -1.027065    3.797106
C      3.182107   -1.065943    2.796829
C      3.650386   -0.697232    1.596038
C      2.889253   -0.734415    0.306554
C      3.129706   -2.021598   -0.478989
C      2.222388   -1.817194   -1.682373
C      2.330925   -0.299049   -2.064616
C      3.156756   -0.261792   -3.387065
C     -4.012172   -1.634962    0.257771
C     -5.314741   -2.124258    0.156743
F     -5.686367   -3.138729    0.950942
H     -8.304091   -1.407932   -1.316013
H     -7.623091   -3.057372   -1.424665
H     -8.019223   -2.339262    0.166167
H     -6.485194   -0.114795   -2.318002
H     -4.189685    0.767511   -2.149644
H     -0.792788    1.027480    0.714997
H     -4.173730    1.991647    0.960738
H     -5.327451    2.491798    3.099928
H     -2.261882    0.425697    5.268159
H     -1.088459   -0.098508    3.156298
H      0.543483   -0.437899   -3.217160
H      1.365459    3.528952   -2.990094
H      1.762952    3.668337   -0.688879
H      3.259099    3.215418   -1.482241
H      2.885683    2.021652    0.628466
H      1.346106    1.433682    0.110494
H      4.626448    1.289281   -2.077479
H      6.550924    1.000768   -0.941527
H      6.909604    0.326052    1.224494
H      4.455193   -2.014545    4.239549
H      4.090081   -0.292222    4.587570
H      2.176358   -1.405220    3.012953
H      1.823840   -0.744929    0.601143
H      4.171101   -2.131130   -0.797222
H      2.850786   -2.920414    0.080671
H      1.197475   -2.081241   -1.389476
H      2.501173   -2.489779   -2.507480
H      4.129437   -0.755638   -3.274604
H      3.319916    0.762943   -3.738331
H      2.638772   -0.794099   -4.196058
H     -3.335793   -2.077185    0.986089
