40

C      3.230666    1.160552   -3.495593
C      2.963229    0.285261   -2.299943
C      2.160119    0.705265   -1.302039
C      1.771402   -0.014923   -0.091971
N      0.441035    0.151717    0.243562
C     -0.258061   -0.320827    1.345219
O      0.207167   -0.949705    2.293901
C     -1.768327    0.029178    1.288512
O     -2.011897    1.298459    0.676122
C     -1.681921    2.407447    1.512438
C     -0.754105    3.363795    0.783007
O     -0.232283    3.190113   -0.307375
O     -0.516954    4.489007    1.487735
C     -2.538124   -1.057294    0.550046
C     -2.713418   -2.315259    1.156467
C     -3.403362   -3.339352    0.501266
C     -3.926599   -3.121195   -0.770876
C     -3.755276   -1.883130   -1.376382
F     -4.260831   -1.672282   -2.599736
C     -3.069083   -0.856642   -0.733589
C      2.645669   -0.733259    0.637824
C      4.055187   -0.924399    0.352142
C      4.598261   -1.168759   -0.849409
S      3.712116   -1.293898   -2.331279
H      2.903527    0.667663   -4.417931
H      4.300812    1.380086   -3.579066
H      2.702795    2.118897   -3.432555
H      1.725997    1.701341   -1.383329
H     -0.115730    0.707885   -0.405077
H     -2.153556    0.066626    2.316901
H     -1.190917    2.096126    2.440894
H     -2.612342    2.934022    1.744197
H      0.087802    5.011795    0.919942
H     -2.300035   -2.509790    2.146260
H     -3.526120   -4.306610    0.982367
H     -4.462565   -3.905865   -1.294837
H     -2.961046    0.093546   -1.248827
H      2.333957   -1.227946    1.552984
H      4.704732   -0.915971    1.225006
H      5.668079   -1.341673   -0.915088
