52

C      8.338478   -1.573125   -0.980099
C      6.876880   -1.380337   -0.681945
C      6.170849   -2.424815   -0.067950
C      4.811833   -2.293668    0.228511
C      4.120075   -1.120574   -0.086598
N      2.749885   -1.077927    0.245277
C      1.844691   -0.060466   -0.013830
O      2.080382    0.994991   -0.589545
C      0.467752   -0.385914    0.550088
C     -0.608545    0.580068    0.046170
C     -1.981847    0.354602    0.699742
C     -2.907777    1.561096    0.424985
C     -4.413054    1.275597    0.635344
C     -5.154837    1.267291   -0.721214
C     -6.460926    0.471406   -0.718368
C     -7.061029    0.356436    0.672018
C     -6.113917   -0.352312    1.640778
C     -4.630287   -0.030756    1.409890
N     -3.940559   -1.095599    0.705825
C     -2.651527   -0.946233    0.261238
O     -2.107051   -1.831105   -0.387847
C      4.812955   -0.076377   -0.700205
C      6.184683   -0.195008   -1.001757
C      6.877386    0.937170   -1.679394
O      7.884374    0.879276   -2.359336
O      6.277563    2.117588   -1.440815
H      8.720161   -2.494746   -0.526944
H      8.929223   -0.749492   -0.566711
H      8.500697   -1.646113   -2.059874
H      6.676159   -3.354876    0.186345
H      4.304390   -3.129099    0.704822
H      2.376222   -1.906105    0.692563
H      0.537354   -0.329624    1.642874
H      0.219424   -1.416107    0.277477
H     -0.690725    0.493699   -1.045090
H     -0.283422    1.608000    0.253764
H     -1.834190    0.276363    1.785942
H     -2.609576    2.371220    1.104247
H     -2.733820    1.952926   -0.585424
H     -4.832546    2.100301    1.228275
H     -5.365117    2.307219   -1.002751
H     -4.515900    0.866234   -1.518352
H     -7.177166    0.939851   -1.403057
H     -6.272254   -0.535594   -1.111542
H     -7.289292    1.360309    1.051884
H     -8.013559   -0.183997    0.630496
H     -6.283345   -1.435326    1.594692
H     -6.392704   -0.047922    2.657766
H     -4.145397    0.039825    2.392348
H     -4.413612   -1.945771    0.421862
H      4.302835    0.845568   -0.962435
H      6.819728    2.766750   -1.934140
