42

C     -2.072358   -3.349684   -0.780368
C     -0.638907   -2.999966   -0.917233
N      0.174299   -3.798028   -1.621335
O      1.435221   -3.228268   -1.529219
C      1.372646   -2.089649   -0.785369
N      2.435760   -1.314291   -0.510477
C      2.173713   -0.232744    0.262871
C      3.355108    0.601911    0.587833
C      3.261397    1.995712    0.779902
C      4.389976    2.764139    1.086791
C      5.629042    2.150261    1.201481
F      6.707775    2.887653    1.493838
C      5.762728    0.783353    1.012246
C      4.633843    0.017464    0.705754
C      0.894732    0.080989    0.721827
C     -0.181526   -0.736633    0.363823
C     -1.526026   -0.389327    0.827504
O     -1.736321   -0.457594    2.034301
N     -2.464209   -0.001832   -0.127641
C     -2.186545    0.496508   -1.471864
C     -1.747659    1.953646   -1.432003
S     -2.542229    2.977166   -0.161629
C     -3.841067    1.951502    0.446481
O     -4.845198    2.473397    0.916668
N     -3.662235    0.579661    0.348879
C     -4.622973   -0.361769    0.886171
C      0.061869   -1.885559   -0.392200
H     -2.410649   -3.206718    0.250625
H     -2.681954   -2.721885   -1.437466
H     -2.256598   -4.395947   -1.046303
H      2.309690    2.512560    0.678435
H      4.308395    3.836957    1.231978
H      6.739481    0.318637    1.101201
H      4.757872   -1.055312    0.558916
H      0.720044    0.939533    1.365114
H     -3.099098    0.385129   -2.071686
H     -1.417731   -0.111110   -1.956781
H     -0.671355    2.001934   -1.233868
H     -1.904282    2.414431   -2.412848
H     -4.554052   -1.317856    0.359089
H     -4.424882   -0.504438    1.952142
H     -5.635737    0.036070    0.772562
