39

C     -5.695758    1.637100    0.422477
C     -4.297133    1.108699    0.249344
C     -3.417771    1.783784   -0.509686
C     -2.088474    1.199502   -0.797331
O     -1.352113    1.776883   -1.599741
C     -1.732393   -0.147756   -0.180348
C     -0.220106   -0.243496    0.154086
O      0.177298   -0.496475    1.291525
N      0.601084   -0.035783   -0.945867
C      2.003185   -0.166546   -1.008556
C      2.636198    0.315386   -2.164528
C      4.020474    0.215783   -2.312571
C      4.766730   -0.373753   -1.298701
O      6.159628   -0.457216   -1.483873
C      6.976506   -1.034549   -0.521160
O      8.191461   -1.121249   -0.658457
C      6.318797   -1.549565    0.692662
C      4.997445   -1.475633    0.878335
C      4.163321   -0.866366   -0.145384
C      2.774759   -0.763736   -0.004727
N     -2.517847   -0.410490    1.046367
C     -3.956598   -0.219077    0.896906
C     -4.572410   -0.396678    2.290481
H     -5.874668    1.927760    1.462284
H     -5.882287    2.518831   -0.200452
H     -6.427986    0.875057    0.136173
H     -3.644823    2.725904   -0.994459
H     -1.957465   -0.928834   -0.917046
H      0.163516    0.437796   -1.735563
H      2.060012    0.781209   -2.960779
H      4.508077    0.594320   -3.206067
H      6.974551   -1.994275    1.431062
H      4.532131   -1.859197    1.780013
H      2.310620   -1.163182    0.891689
H     -2.140273    0.150899    1.812298
H     -4.353379   -1.018241    0.257488
H     -5.666623   -0.414489    2.241731
H     -4.276319    0.409938    2.971474
H     -4.261366   -1.347851    2.738899
