53

C      8.686649   -1.634450    0.429855
C      7.468578   -0.895251   -0.046262
C      6.218602   -1.197157    0.519224
C      5.081096   -0.531315    0.073872
S      3.507330   -0.917873    0.815840
C      2.561933    0.550939    0.303585
C      1.207162    0.558433    0.991253
O      1.071184    0.532374    2.213555
N      0.133902    0.643119    0.127159
C     -1.213804    0.514224    0.603615
C     -1.636458   -0.959035    0.580886
C     -2.968689   -1.264924    1.258857
C     -4.205610   -0.483147    0.792051
S     -4.794855   -1.020628   -0.829997
O     -3.939341   -0.518317   -1.881264
O     -5.058443   -2.443572   -0.725013
N     -6.300111   -0.278009   -0.989320
C     -6.405756    1.060988   -1.571478
C     -7.375473   -0.634863   -0.061285
C     -4.077912    1.020250    1.018031
C     -3.211913    1.829459    0.053988
N     -1.942954    1.272031   -0.377079
N      5.115901    0.384329   -0.914155
C      6.332628    0.653844   -1.448765
C      7.544486    0.102879   -1.025591
N      8.738904    0.379560   -1.709443
H      9.369667   -0.946730    0.930926
H      8.426746   -2.424806    1.140327
H      9.199061   -2.107346   -0.409787
H      6.134498   -1.948766    1.299580
H      2.439687    0.541882   -0.785137
H      3.082572    1.471339    0.592753
H      0.270687    0.411543   -0.847573
H     -1.279638    0.943864    1.610260
H     -1.655477   -1.333515   -0.452237
H     -0.866185   -1.559474    1.084504
H     -3.159692   -2.341107    1.158477
H     -2.843926   -1.089824    2.336763
H     -5.007625   -0.823470    1.464929
H     -5.669867    1.217211   -2.363534
H     -7.390908    1.180965   -2.037037
H     -6.293303    1.834994   -0.811262
H     -8.347210   -0.470777   -0.535746
H     -7.330467   -1.689013    0.219730
H     -7.320034   -0.024206    0.841066
H     -3.699272    1.179204    2.037852
H     -5.078641    1.466450    1.027039
H     -3.019761    2.802205    0.527608
H     -3.790034    2.058291   -0.847782
H     -1.345827    2.036571   -0.686061
H      6.310074    1.372360   -2.264134
H      9.575959    0.235946   -1.153384
H      8.751880    1.282323   -2.176396
