38

C     -4.376792    1.246429   -1.513233
C     -4.507064    0.516903   -0.203290
C     -5.711453   -0.146214    0.083901
C     -5.870079   -0.814035    1.298209
C     -4.811796   -0.799316    2.188446
N     -3.651391   -0.156874    1.950509
C     -3.499336    0.497671    0.775752
N     -2.310310    1.213089    0.549940
C     -1.223343    1.251803    1.411378
O     -1.094110    0.641248    2.470509
C     -0.096740    2.166741    0.909054
N      1.138202    1.412517    0.755919
C      1.985816    1.109469    1.806956
C      2.968761    0.310638    1.365884
N      2.775448    0.065109    0.024257
C      3.727104   -0.795367   -0.687527
C      3.890937   -1.269811   -1.959348
C      5.128336   -1.965719   -1.500190
C      6.253028   -2.707521   -1.500765
C      6.650434   -2.612771   -0.116697
N      5.808518   -1.855875    0.632687
N      4.926792   -1.510343   -0.283364
C      1.599046    0.734380   -0.411696
S      0.895495    0.736395   -1.917033
H     -3.464260    0.946423   -2.047651
H     -5.221991    1.026702   -2.184597
H     -4.372361    2.330727   -1.336686
H     -6.538601   -0.132104   -0.628263
H     -6.791536   -1.327271    1.545171
H     -4.870888   -1.294541    3.155931
H     -2.232112    1.693919   -0.331391
H     -0.361281    2.639756   -0.045743
H      0.053129    2.969893    1.641202
H      1.810822    1.470448    2.812137
H      3.785623   -0.118539    1.934945
H      3.357381   -1.173400   -2.899595
H      6.739692   -3.239810   -2.304837
H      7.510881   -3.060749    0.357712
