53

C     -4.954273   -0.051564    1.292582
C     -3.627088    0.382309    0.662343
C     -3.760746    1.731607   -0.059521
C     -4.620683    1.658036   -1.318829
C     -4.484261    0.326283   -2.052756
C     -3.208355   -0.417476   -1.680477
N     -3.098890   -0.663153   -0.237341
C     -2.368200   -1.782287    0.163146
O     -1.858913   -2.536771   -0.672529
C     -2.183985   -2.063379    1.655115
S     -0.428060   -2.335317    2.098179
C      0.340252   -1.074576    1.146494
C      1.163948   -1.393046    0.112729
C      1.488355   -2.734516   -0.252135
N      1.806942   -3.800048   -0.582229
C      1.769897   -0.296747   -0.762730
C      3.292919   -0.244053   -0.654468
C      3.935421    0.113497    0.543541
C      5.330163    0.136716    0.623942
C      6.116046   -0.206611   -0.484904
C      7.622266   -0.157529   -0.403446
F      8.233766   -1.047143   -1.234696
F      8.099193   -0.428034    0.844150
F      8.118653    1.066163   -0.734980
C      5.477127   -0.560349   -1.681468
C      4.082514   -0.583342   -1.764744
N      1.193659    1.017827   -0.464533
N      1.341920    2.116034   -1.231308
C      0.662345    3.014632   -0.508994
N      0.062979    2.534230    0.628385
C      0.395656    1.269925    0.614963
N      0.066590    0.255770    1.429620
H     -4.841562   -0.979523    1.861718
H     -5.325647    0.717352    1.978056
H     -5.726299   -0.233601    0.538828
H     -2.903177    0.534907    1.468492
H     -2.757281    2.071912   -0.348119
H     -4.158424    2.496753    0.617542
H     -5.675187    1.820520   -1.065031
H     -4.339674    2.481581   -1.986445
H     -5.347985   -0.305603   -1.811138
H     -4.520943    0.495242   -3.134913
H     -2.324723    0.160560   -1.977503
H     -3.174000   -1.365013   -2.228995
H     -2.746388   -2.971875    1.892860
H     -2.560659   -1.274585    2.301920
H      1.474852   -0.487731   -1.804548
H      3.360399    0.383818    1.428113
H      5.804994    0.424221    1.561481
H      6.066718   -0.823435   -2.559157
H      3.620755   -0.868732   -2.709266
H      0.592876    4.049314   -0.821385
H     -0.525803    0.426830    2.234809
