71

C     10.602745   -0.109090   -0.476599
C      9.213386    0.156172   -1.056897
C      8.250133    0.714797    0.003513
C      7.388903   -0.384128    0.627546
N      6.572452   -1.132191   -0.345464
C      5.154450   -0.701092   -0.361046
C      4.394313   -1.223451    0.879640
O      4.647761   -2.626942    1.023858
C      2.885424   -0.990945    0.763035
O      2.625204    0.410225    0.633115
C      1.298310    0.765735    0.809379
C      1.015601    1.799079    1.613856
C     -0.331244    2.271478    1.797744
C     -1.392693    1.652248    1.263325
C     -2.754708    2.162360    1.480816
O     -2.969075    3.215948    2.072740
C     -3.821976    1.297742    0.918071
C     -5.072773    1.796931    0.999115
C     -6.308100    1.181790    0.510696
C     -6.757581    1.444037   -0.785594
C     -7.952021    0.880673   -1.245136
C     -8.718201    0.048090   -0.415383
C    -10.011321   -0.554447   -0.936553
C    -11.212350   -0.164092   -0.070453
C     -9.903972   -2.075872   -1.066014
C     -8.254055   -0.213761    0.882349
C     -7.060988    0.350696    1.343449
C     -3.487318   -0.037839    0.331591
O     -4.340113   -0.894745    0.148486
N     -2.174286   -0.280197    0.006084
C     -1.197192    0.453307    0.428743
C      0.230494    0.050644    0.007807
C      0.399757    0.325333   -1.487652
C      7.125450   -1.099874   -1.711841
C      8.652269   -1.117154   -1.709637
H     11.280793   -0.485581   -1.249778
H     11.035540    0.812369   -0.070995
H     10.562390   -0.847683    0.331400
H      9.327888    0.925619   -1.832527
H      8.799132    1.249080    0.787824
H      7.589988    1.457206   -0.465544
H      8.048908   -1.105098    1.127147
H      6.779313    0.051459    1.427160
H      5.070234    0.388305   -0.454363
H      4.673069   -1.143876   -1.243373
H      4.761947   -0.724617    1.782065
H      5.577608   -2.735418    0.730851
H      2.500157   -1.531994   -0.109373
H      2.387729   -1.395292    1.654145
H      1.810524    2.319885    2.142026
H     -0.454659    3.163869    2.409770
H     -5.247855    2.773250    1.451985
H     -6.185912    2.087150   -1.450275
H     -8.279364    1.097055   -2.259855
H    -10.200939   -0.155749   -1.942767
H    -12.143307   -0.526803   -0.519663
H    -11.288045    0.924899    0.026090
H    -11.145445   -0.586275    0.938080
H     -9.742403   -2.560044   -0.096461
H     -9.071306   -2.354005   -1.723124
H    -10.822586   -2.490848   -1.495439
H     -8.813850   -0.866152    1.548480
H     -6.723687    0.125760    2.351984
H      0.300534   -1.029307    0.189522
H      0.213505    1.379858   -1.718738
H      1.406227    0.069535   -1.834666
H     -0.314077   -0.264120   -2.074414
H      6.784545   -0.208061   -2.255247
H      6.756452   -1.974277   -2.261099
H      9.003111   -2.014538   -1.183123
H      9.027155   -1.197027   -2.736729
