57

C     -5.703294   -2.765302   -1.122436
C     -5.041771   -2.071463    0.067858
C     -3.577305   -1.748777   -0.229190
C     -2.857636   -1.188868    1.008420
N     -1.740506   -0.331602    0.628234
C     -0.581152   -0.867767    0.123472
O     -0.355267   -2.063726    0.016381
N      0.290265    0.128801   -0.246778
C      1.630334   -0.223605   -0.688422
C      2.286442    0.916200   -1.462716
C      3.678404    0.576557   -1.846024
C      4.240012   -0.042794   -2.941238
C      5.634739   -0.087708   -2.700652
C      5.838744    0.510644   -1.474667
C      7.064377    0.773912   -0.660334
C      7.363222    2.267235   -0.541548
N      6.797955    2.650565    0.717879
C      6.528381    1.570389    1.527537
O      6.107907    1.642069    2.669373
C      6.911936    0.310091    0.793384
O      4.647898    0.920952   -0.955437
C     -3.803601   -0.465876    1.983690
C     -5.029352    0.207597    1.325872
C     -5.946453    0.753717    2.439771
C     -4.597468    1.409671    0.461611
C     -5.826911   -0.806449    0.461697
H     -5.180046   -3.694962   -1.370160
H     -5.694797   -2.125613   -2.011638
H     -6.744589   -3.017154   -0.894641
H     -5.073128   -2.772479    0.913093
H     -3.052960   -2.650901   -0.569368
H     -3.520302   -1.040834   -1.066071
H     -2.420160   -2.034733    1.556196
H     -1.966219    0.577011    0.252833
H      0.228348    0.938107    0.354829
H      1.577473   -1.126444   -1.309432
H      2.210826   -0.478601    0.206815
H      1.699446    1.140194   -2.361944
H      2.282595    1.831203   -0.856931
H      3.707429   -0.423453   -3.802019
H      6.396702   -0.509527   -3.341325
H      7.902336    0.254260   -1.140932
H      8.441049    2.452208   -0.482100
H      6.935227    2.881551   -1.339385
H      6.658151    3.596952    1.048444
H      6.151271   -0.463835    0.929334
H      7.870700   -0.034445    1.195758
H     -4.175353   -1.216209    2.696758
H     -3.244566    0.261473    2.587364
H     -6.834622    1.238754    2.019515
H     -5.423028    1.491924    3.057532
H     -6.288363   -0.049896    3.101441
H     -5.469950    1.971534    0.106978
H     -4.036035    1.103688   -0.425018
H     -3.971058    2.102698    1.034240
H     -6.197538   -0.302816   -0.441075
H     -6.728740   -1.135766    0.995173
