49

C     -1.281001   -1.549600    1.398731
C     -2.480119   -0.823763    0.798144
C     -3.160665   -1.669004   -0.262217
O     -3.135220   -2.900246   -0.233561
C     -3.871074   -0.948042   -1.376680
C     -4.315343    0.436210   -0.932606
C     -5.528235    0.390803   -0.035127
C     -6.916047    0.322187   -0.623290
C     -6.449017    1.582944    0.049110
O     -3.312495    1.220605   -0.287974
C     -2.143116    0.552301    0.208749
C     -1.031262    0.582803   -0.858047
N      0.281114    0.574913   -0.198157
N      1.206552    0.406614   -1.011432
N      2.445637    0.384455   -0.425022
C      2.618174   -0.115088    0.938993
C      3.903470    0.436023    1.555098
C      5.092463    0.271187    0.642715
C      6.390207    0.318158    1.170455
C      7.497874    0.205075    0.331132
C      7.319137    0.053576   -1.041409
C      6.031779    0.018665   -1.577542
C      4.907607    0.136426   -0.745462
C      3.526959    0.069952   -1.357276
H     -0.749290   -0.909749    2.110075
H     -1.606699   -2.445310    1.939734
H     -0.577309   -1.882390    0.628638
H     -3.224791   -0.683797    1.591881
H     -4.727975   -1.547889   -1.701802
H     -3.170496   -0.872047   -2.214317
H     -4.587449    0.994607   -1.837234
H     -5.352959   -0.148917    0.887883
H     -7.033057    0.338926   -1.700928
H     -7.655335   -0.282263   -0.109130
H     -6.867306    1.830773    1.018290
H     -6.235006    2.446557   -0.570737
H     -1.804949    1.185585    1.039796
H     -1.116328   -0.264815   -1.546474
H     -1.124690    1.495684   -1.459675
H      1.779208    0.182333    1.575942
H      2.639920   -1.210778    0.892071
H      3.782027    1.507605    1.757401
H      4.084838   -0.068732    2.511115
H      6.543834    0.445485    2.239635
H      8.500841    0.238917    0.748268
H      8.182786   -0.034694   -1.695236
H      5.908025   -0.099190   -2.651982
H      3.356892   -0.948147   -1.728581
H      3.457888    0.775095   -2.193837
