51

C     -2.599123   -1.147924    2.070511
C     -1.607301   -1.235061    0.907073
C     -1.970017   -2.303164   -0.133229
C     -3.254513   -2.060363   -0.921772
C     -3.205491   -0.789009   -1.763762
C     -3.407199    0.465251   -0.946331
C     -4.556861    1.245040   -1.189582
C     -4.782382    2.429646   -0.494129
C     -3.859207    2.849704    0.452073
C     -2.719631    2.084307    0.698631
F     -1.883361    2.537312    1.646034
C     -2.455154    0.876332    0.015277
N     -1.323291    0.071178    0.254899
C     -0.064090    0.713548    0.692469
C      0.455889    1.715017   -0.345566
C      1.812857    2.298333    0.039041
N      2.891146    1.349989   -0.154609
C      3.436487    0.623252    0.879836
O      3.057339    0.738345    2.039986
C      4.511465   -0.258425    0.476851
C      5.719833   -0.442498    1.133466
C      6.489635   -1.372408    0.399262
C      5.724644   -1.774605   -0.670405
N      4.515794   -1.128751   -0.596608
C      3.397695   -1.413310   -1.471858
H     -2.670978   -2.114518    2.581019
H     -3.608751   -0.873577    1.750719
H     -2.268615   -0.406838    2.806545
H     -0.671681   -1.595883    1.356735
H     -2.056789   -3.273422    0.372496
H     -1.137566   -2.403074   -0.842730
H     -3.392174   -2.913289   -1.598451
H     -4.122923   -2.052918   -0.252781
H     -3.991337   -0.857207   -2.526934
H     -2.261444   -0.716378   -2.318353
H     -5.285517    0.927966   -1.933324
H     -5.673218    3.019588   -0.691068
H     -4.014840    3.766670    1.011090
H      0.693231   -0.072604    0.792014
H     -0.161887    1.161531    1.686833
H      0.520211    1.230383   -1.328228
H     -0.247932    2.547194   -0.452011
H      1.805175    2.661909    1.072129
H      2.036748    3.150656   -0.611685
H      3.370821    1.345128   -1.043953
H      6.012862    0.067194    2.043559
H      7.487095   -1.721115    0.633783
H      5.934656   -2.487346   -1.457660
H      3.372485   -0.650959   -2.253805
H      2.473466   -1.409112   -0.888762
H      3.533737   -2.401716   -1.919216
