28

C     -3.374440   -0.246431   -0.154627
C     -1.865546   -0.227963   -0.425805
C     -1.147957   -1.015184    0.706697
C      0.299654   -0.630317    0.660735
C      0.890477   -0.934920   -0.706185
C      1.766420    0.246062   -0.929888
C      2.829336    0.277525    0.197392
C      2.349157   -0.180623    1.606660
O      1.237988   -1.115153    1.604463
O      0.991751    1.494006   -1.009583
C     -0.305063    1.920663   -0.964175
O     -0.527625    3.112446   -1.196179
N     -1.418276    1.180999   -0.628307
H     -3.618099    0.300800    0.762766
H     -3.922398    0.227938   -0.976328
H     -3.741705   -1.272919   -0.052576
H     -1.726410   -0.728540   -1.388817
H     -1.558518   -0.757242    1.690925
H     -1.289226   -2.095444    0.587607
H      0.244154    0.434209    0.913346
H      1.473845   -1.864417   -0.694968
H      0.191600   -1.018186   -1.536371
H      2.281738    0.168074   -1.893533
H      3.624131   -0.421616   -0.096001
H      3.291589    1.267823    0.274725
H      3.175708   -0.648175    2.152004
H      2.042808    0.696568    2.190559
H     -2.195092    1.830017   -0.694532
