51

C      1.776818   -1.268489    1.457689
C      2.059929   -0.762397    0.036249
C      1.219878    0.471223   -0.369288
N     -0.115153    0.520942    0.146910
C     -1.109634   -0.292832   -0.344765
O     -0.889118   -1.159989   -1.186288
C     -2.493947   -0.023565    0.257245
C     -3.011566    1.344952   -0.208195
C     -4.327042    1.783268    0.435721
C     -5.541441    1.056243   -0.125275
C     -5.849571   -0.295314    0.511128
C     -4.675223   -1.187539    0.916163
C     -3.445033   -1.217137   -0.003909
N     -3.843071   -1.368014   -1.406893
S      2.120949    1.924325    0.257768
C      3.683200    1.036179    0.526041
C      4.924335    1.774471    0.024912
C      6.055167    0.806621   -0.360810
C      5.976812   -0.525252    0.386192
C      4.640141   -1.257192    0.175749
C      3.508625   -0.295844   -0.203275
H      1.987315   -0.515088    2.222152
H      0.728704   -1.566640    1.565020
H      2.371826   -2.157653    1.685128
H      1.829789   -1.590067   -0.647002
H      1.174676    0.549661   -1.462143
H     -0.335561    1.298360    0.752917
H     -2.330847    0.030088    1.344003
H     -2.264805    2.111731    0.034285
H     -3.099100    1.366972   -1.302009
H     -4.280240    1.693130    1.527022
H     -4.452829    2.852117    0.219413
H     -5.438278    0.941658   -1.211087
H     -6.424735    1.693060    0.014793
H     -6.460555   -0.127925    1.408098
H     -6.498914   -0.851431   -0.177744
H     -5.064489   -2.210856    1.010913
H     -4.356562   -0.909610    1.929468
H     -2.889360   -2.126991    0.263861
H     -4.351922   -2.243594   -1.523668
H     -2.988128   -1.473889   -1.965153
H      3.780442    0.870677    1.605948
H      5.276290    2.452418    0.812618
H      4.700735    2.404429   -0.845098
H      7.024295    1.285099   -0.179082
H      6.005653    0.609454   -1.439341
H      6.803140   -1.177834    0.082083
H      6.112647   -0.334168    1.458500
H      4.750158   -2.001676   -0.622375
H      4.418457   -1.819824    1.087292
H      3.607142   -0.116268   -1.286844
