59

C     -7.307962    2.784393   -2.091425
C     -6.621221    2.116174   -0.949337
C     -7.297000    0.989798   -0.212720
C     -6.110132    0.704166   -1.099085
C     -4.769978    0.256146   -0.448136
C     -4.050840    0.909977    0.525747
C     -2.907850    0.111539    0.780098
C     -2.987613   -0.989483   -0.049977
C     -1.980588   -2.194046   -0.170922
N     -2.234254   -3.178166   -1.046902
N     -1.213753   -4.028906   -0.899881
C     -1.166778   -5.222901   -1.709955
C     -0.315013   -3.639145    0.041934
C     -0.770060   -2.433551    0.546625
C     -0.112730   -1.637614    1.623295
N      0.472940   -0.399591    1.087709
C      1.550216   -0.674930    0.107118
C      2.566433    0.474352   -0.021072
N      3.285898    0.714069    1.272766
S      4.877566    0.114977    1.365186
O      4.862741   -1.238065    0.851674
O      5.393428    0.411576    2.685374
C      5.748544    1.152577    0.215101
C      5.935683    2.503254    0.536511
C      6.632798    3.327348   -0.347473
C      7.135617    2.794162   -1.531586
F      7.810571    3.586420   -2.375931
C      6.958605    1.448790   -1.849129
C      6.263642    0.616611   -0.970878
C      2.458081    0.366866    2.472470
C      0.953649    0.483805    2.172144
O     -4.131992   -0.891820   -0.799107
H     -7.977773    3.566754   -1.720630
H     -7.900180    2.081367   -2.686084
H     -6.570878    3.251037   -2.751605
H     -6.047510    2.826339   -0.367850
H     -8.269720    0.651738   -0.554601
H     -7.166807    0.933959    0.862325
H     -6.315974    0.192733   -2.034658
H     -4.310247    1.846126    0.997852
H     -2.124350    0.333338    1.485363
H     -2.034099   -5.842976   -1.460461
H     -1.195070   -4.926446   -2.760863
H     -0.243146   -5.771006   -1.502168
H      0.557460   -4.230126    0.278742
H      0.652432   -2.239900    2.132231
H     -0.872846   -1.407766    2.381092
H      2.102066   -1.583396    0.382773
H      1.096907   -0.849372   -0.875867
H      2.062636    1.405325   -0.305968
H      3.269142    0.248795   -0.829174
H      5.546321    2.909522    1.467602
H      6.792811    4.377755   -0.120197
H      7.368167    1.060640   -2.777208
H      6.132729   -0.436398   -1.212922
H      2.682599   -0.651269    2.815087
H      2.715695    1.064001    3.278243
H      0.378729    0.333992    3.094376
H      0.742256    1.516460    1.863472
