49

C     -5.389380   -0.699301    0.941647
C     -4.169354   -0.512305    0.030069
C     -4.562002    0.396200   -1.143130
C     -3.422782    0.982174   -1.970710
C     -2.232782    0.053195   -2.170602
C     -1.205011    0.154193   -1.043863
C     -1.606701   -0.470119    0.302415
C     -0.531617   -0.190845    1.382653
N      0.776944   -0.754465    1.098152
C      1.871192    0.026097    0.574392
C      3.077457   -0.895027    0.737566
C      4.202718   -0.669117   -0.276664
C      5.102032    0.535470    0.018685
C      4.414010    1.859561   -0.073121
C      4.886395    2.920330   -1.035816
O      3.738212    2.108051   -1.311015
C      2.459574   -2.294887    0.601098
C      1.053137   -2.111461    1.110752
O      0.294922   -3.011497    1.430725
C     -2.972631    0.011039    0.840661
H     -5.174795   -1.423637    1.734722
H     -5.680865    0.244783    1.414566
H     -6.246769   -1.075321    0.373159
H     -3.922481   -1.505380   -0.367389
H     -5.175987    1.232451   -0.783286
H     -5.215276   -0.181088   -1.811458
H     -3.830961    1.251684   -2.953272
H     -3.089884    1.925796   -1.520761
H     -2.552679   -0.983894   -2.321601
H     -1.727059    0.356464   -3.096583
H     -0.929381    1.206469   -0.897617
H     -0.300829   -0.353073   -1.400967
H     -1.665316   -1.557291    0.158929
H     -0.419389    0.885261    1.558919
H     -0.856077   -0.643828    2.327802
H      1.667938    0.270133   -0.471662
H      1.973678    0.944726    1.157957
H      3.470857   -0.795781    1.758731
H      3.786549   -0.587685   -1.288474
H      4.846538   -1.558561   -0.280656
H      5.944927    0.509387   -0.683171
H      5.537331    0.432196    1.019830
H      3.941385    2.174830    0.847047
H      5.777214    2.743339   -1.625190
H      4.713066    3.958823   -0.782192
H      2.996944   -3.027945    1.208660
H      2.412690   -2.630422   -0.440086
H     -2.995913    1.106070    0.907034
H     -3.069788   -0.355794    1.871236
