52

C     -4.236296   -1.927676   -1.681040
C     -4.946109   -1.625179   -0.357140
C     -4.439719   -2.526003    0.775157
C     -3.049787   -2.111762    1.246897
C     -2.981872   -0.615740    1.561412
N     -3.417065    0.199256    0.414176
C     -3.319768    1.641671    0.699642
C     -1.883019    2.161623    0.832644
C     -1.026215    1.847982   -0.393029
C      0.362617    2.442733   -0.282284
O      0.745739    3.127801    0.659576
N      1.162946    2.140539   -1.364554
C      2.570691    2.505483   -1.375914
C      3.428969    1.530060   -0.560795
C      4.861595    2.044751   -0.450652
O      5.659641    1.168302    0.354358
C      5.457451   -0.145482    0.019876
C      6.385381   -1.064992    0.505501
C      6.256631   -2.417909    0.186806
C      5.198785   -2.849554   -0.615070
C      4.261769   -1.930555   -1.090497
C      4.382861   -0.581850   -0.760505
O      3.416228    0.260370   -1.245417
C     -4.800650   -0.145501    0.038407
H     -4.656244   -1.318019   -2.488331
H     -3.162073   -1.724148   -1.635143
H     -4.368083   -2.979295   -1.956992
H     -6.013059   -1.835698   -0.506406
H     -4.432507   -3.576489    0.462449
H     -5.134663   -2.455154    1.621900
H     -2.781527   -2.686228    2.141157
H     -2.305869   -2.361235    0.480534
H     -3.594527   -0.398526    2.446244
H     -1.942929   -0.387983    1.822232
H     -3.784976    2.201004   -0.122984
H     -3.882759    1.896725    1.606900
H     -1.925323    3.249046    0.977323
H     -1.407766    1.760531    1.735489
H     -1.499694    2.253180   -1.294946
H     -0.918559    0.764299   -0.516409
H      0.874696    1.381289   -1.970524
H      2.878153    2.504923   -2.427380
H      2.665862    3.523771   -0.982957
H      2.997611    1.377156    0.437717
H      4.882035    3.030807    0.025314
H      5.337342    2.134750   -1.435828
H      7.212440   -0.726418    1.123207
H      6.983392   -3.134371    0.561159
H      5.101184   -3.902796   -0.865618
H      3.433188   -2.267469   -1.706662
H     -5.486534    0.076768    0.867368
H     -5.119614    0.471216   -0.811568
