58

C      0.989128    0.793798    2.213785
C      0.250462    0.530731    0.882786
N     -1.072349    0.044700    1.218138
C     -2.094041   -0.107115    0.157050
C     -1.707716    0.144690   -1.341738
O     -1.385527    1.496262   -1.634674
C     -3.344629    0.790033    0.567622
C     -3.053821    2.295276    0.699248
C     -4.568613    0.612906   -0.345443
C     -2.509819   -1.609812    0.282483
C     -1.439497   -2.610037    0.751660
C     -0.141054   -2.686687   -0.053557
C      1.054046   -1.787095    0.413458
N      2.356930   -2.386793    0.008344
C      2.850052   -3.347011    0.995179
C      2.381767   -2.977269   -1.332282
N      0.952183   -0.372565   -0.044678
C      2.254047    0.218406   -0.465753
C      2.230300    1.658640   -0.979049
C      3.127737    2.593712   -0.460401
C      3.113116    3.894925   -0.955308
C      2.216700    4.231430   -1.960844
C      1.367608    3.246549   -2.433101
N      1.350740    1.975089   -1.966539
H      0.437528    1.527483    2.815896
H      1.095696   -0.108940    2.824492
H      1.986912    1.214294    2.057383
H      0.112091    1.515987    0.428495
H     -1.451147    0.582541    1.992776
H     -0.894411   -0.493843   -1.691829
H     -2.552153   -0.114403   -1.989863
H     -0.404143    1.527020   -1.685763
H     -3.663354    0.459793    1.568358
H     -2.914729    2.777951   -0.272029
H     -2.173543    2.499858    1.314449
H     -3.901656    2.796434    1.180849
H     -4.850848   -0.438241   -0.448864
H     -5.433331    1.139129    0.074634
H     -4.394889    1.024626   -1.344306
H     -3.334827   -1.704747    1.002733
H     -2.915903   -1.967345   -0.673228
H     -1.913256   -3.600663    0.699935
H     -1.215982   -2.465997    1.815935
H     -0.345343   -2.555028   -1.122256
H      0.172029   -3.734448    0.052563
H      1.051288   -1.789423    1.508525
H      2.189403   -4.213508    1.105069
H      3.845861   -3.709961    0.715449
H      2.963361   -2.871236    1.975869
H      1.938616   -2.312330   -2.081530
H      1.864948   -3.941789   -1.385368
H      3.420150   -3.144506   -1.641286
H      2.987860    0.140963    0.346867
H      2.659920   -0.334207   -1.319443
H      3.831625    2.318612    0.318726
H      3.798741    4.639893   -0.560570
H      2.179206    5.235386   -2.367462
H      0.646533    3.457885   -3.218615
