32

C      5.158229   -1.195721   -1.647024
C      4.076196   -0.377254   -2.272884
C      2.881129   -0.102249   -1.735962
C      1.667106    0.676925   -2.168958
C      1.017857    0.320436   -0.843205
C     -0.175727    0.625278   -0.319935
C     -0.785278    0.276031    0.956351
C     -2.052865    0.610611    1.150311
C     -3.214257    1.210239    0.612433
C     -3.988344    0.571697   -0.486436
C     -3.145923    0.590768    2.048352
N     -3.765546   -0.694566    2.347531
C     -0.023692   -0.420686    2.054956
F     -0.727817   -0.485564    3.221697
F      0.266990   -1.704419    1.730544
F      1.131222    0.221375    2.360762
C      2.214416   -0.443353   -0.475974
O      2.542340   -1.110908    0.485957
H      4.883619   -1.573802   -0.658832
H      5.391619   -2.052535   -2.286502
H      6.064733   -0.592034   -1.540430
H      4.294678    0.027350   -3.258002
H      1.832145    1.748760   -2.336713
H      1.155129    0.292334   -3.060157
H     -0.809041    1.234585   -0.966629
H     -3.232966    2.291708    0.548727
H     -3.846196   -0.512886   -0.536445
H     -5.056992    0.770571   -0.357625
H     -3.682915    0.990199   -1.451206
H     -3.107609    1.294040    2.875916
H     -3.644505   -1.367324    1.591251
H     -3.317732   -1.119607    3.161847
