59

C     -3.628251    2.537289   -3.858136
C     -3.274726    2.505273   -2.399795
C     -2.042348    2.652482   -1.888215
C     -0.676095    2.914858   -2.455106
O     -0.234963    3.165496   -3.556798
C     -0.145609    2.473581   -1.243322
C      0.817296    1.999649   -0.408108
C      2.187039    1.807879   -0.700525
N      3.307726    1.719945   -0.993635
C      0.060308    1.591878    0.782284
S      0.807956    1.003758    2.215411
C      0.889076   -0.792079    1.916943
C      2.038811   -1.176500    1.009803
O      1.853679   -1.484608   -0.170607
N      3.266760   -1.197697    1.635452
C      4.450126   -1.721810    1.017063
C      5.127802   -0.746714    0.052794
C      6.572216   -1.164466   -0.259217
C      6.854867   -2.585317    0.214667
C      6.499023   -2.738034    1.693744
O      5.341258   -1.998894    2.096657
C     -1.269845    1.900700    0.651101
C     -2.374438    1.858854    1.667084
S     -3.127333    0.250082    1.929820
O     -2.161529   -0.615510    2.581293
O     -4.393202    0.528445    2.586367
C     -3.466556   -0.457132    0.300873
C     -4.960130   -0.640441    0.010576
C     -5.547888   -1.816125    0.799305
C     -5.169923   -0.882332   -1.490284
C     -1.435412    2.822194   -0.528346
H     -4.245104    1.660728   -4.127862
H     -2.750993    2.540209   -4.518380
H     -4.219438    3.442577   -4.056497
H     -4.104701    2.391736   -1.697594
H      1.041446   -1.279108    2.885619
H     -0.031128   -1.198053    1.504346
H      3.386182   -0.777205    2.556036
H      4.181203   -2.652059    0.497798
H      5.153825    0.258333    0.491317
H      4.543351   -0.674201   -0.872500
H      6.769659   -1.070846   -1.332915
H      7.265250   -0.478444    0.246710
H      7.892064   -2.879073    0.031420
H      6.234930   -3.274938   -0.368840
H      7.332779   -2.387923    2.311481
H      6.336139   -3.795254    1.935749
H     -2.026456    2.218465    2.645596
H     -3.203894    2.517794    1.357043
H     -2.930301   -1.412307    0.259376
H     -3.003154    0.192471   -0.445113
H     -5.486014    0.287475    0.279784
H     -6.642255   -1.775650    0.784186
H     -5.230690   -1.837412    1.842298
H     -5.245911   -2.768378    0.347429
H     -4.753445   -0.058088   -2.079413
H     -6.236704   -0.947277   -1.721801
H     -4.695254   -1.815228   -1.819879
H     -1.497078    3.856948   -0.144537
