45

C      0.778532   -1.617730    3.294540
C      1.070850   -0.148066    3.023584
C      0.797883    0.345473    1.590276
N     -0.618973    0.279158    1.265329
C     -1.162705    1.143116    0.349159
O     -0.553229    2.061306   -0.180357
N     -2.471626    0.837311    0.098279
C     -3.251007    1.711358   -0.746557
C     -4.573906    1.063966   -0.995533
C     -4.885127    0.083356   -1.918176
C     -6.257680   -0.294508   -1.867078
C     -6.949302    0.408148   -0.906238
S     -5.946348    1.513466   -0.072235
C      1.602719   -0.353337    0.539328
C      2.743769    0.025934   -0.058469
C      3.545745    1.183927    0.252037
C      4.234208    1.961233   -0.600806
C      4.279088    1.883239   -2.095181
Cl     5.155486    3.285493    0.057590
C      3.116956   -1.050179   -1.010746
O      4.168788   -1.120149   -1.622573
N      2.100086   -1.945779   -1.018385
C      2.093395   -3.168087   -1.781786
C      1.180899   -1.622454   -0.080686
O      0.183691   -2.247714    0.240312
H      1.442065   -2.271453    2.721489
H      0.941535   -1.838278    4.354752
H     -0.258878   -1.872716    3.059446
H      0.469322    0.450863    3.719755
H      2.121203    0.045645    3.276217
H      1.064805    1.410695    1.580850
H     -1.006271   -0.657768    1.203931
H     -2.961320    0.413519    0.872951
H     -2.713823    1.873129   -1.688292
H     -3.348187    2.681936   -0.246647
H     -4.156999   -0.344487   -2.597622
H     -6.713910   -1.044059   -2.502149
H     -7.997155    0.326550   -0.651828
H      3.573914    1.444710    1.309866
H      4.168185    2.878953   -2.539018
H      5.234554    1.464896   -2.427090
H      3.469518    1.274517   -2.506905
H      2.565495   -3.951401   -1.180632
H      2.659235   -3.038908   -2.708568
H      1.064519   -3.464824   -2.003674
