39

C     -6.471884    1.125888    0.678825
C     -6.125449   -0.356452    0.611574
C     -4.802513   -0.621089   -0.121664
C     -4.585535   -2.124524   -0.301154
N     -3.682559   -0.032209    0.601738
C     -2.508336    0.286291   -0.029564
O     -2.317533    0.193790   -1.237233
N     -1.559459    0.791150    0.832620
N     -0.261415    0.959133    0.299829
C      0.817664    0.659916    1.117708
O      0.633301    0.449645    2.318121
C      2.109099    0.618218    0.463641
C      2.457356    0.701075   -0.870788
N      3.809662    0.629903   -1.152774
C      4.480123    0.500420   -0.029541
C      6.051939    0.394491    0.007193
C      6.765778    0.484775   -1.359436
C      7.645495   -0.648719   -0.813142
N      6.530501   -1.021850    0.096253
S      3.542041    0.449154    1.400197
H     -6.532036    1.562674   -0.323102
H     -5.726333    1.686002    1.253505
H     -7.443196    1.262710    1.166224
H     -6.080902   -0.757899    1.632086
H     -6.940907   -0.879789    0.096660
H     -4.843820   -0.161713   -1.117349
H     -5.414403   -2.573657   -0.858131
H     -3.662678   -2.323989   -0.855165
H     -4.506623   -2.633055    0.665849
H     -3.651881   -0.157378    1.603827
H     -1.579374    0.530053    1.816725
H     -0.214538    0.931243   -0.716788
H      1.771388    0.815634   -1.701437
H      6.496445    1.054398    0.767322
H      7.280049    1.425774   -1.578889
H      6.171549    0.189317   -2.234255
H      8.543275   -0.308243   -0.282204
H      7.930798   -1.424758   -1.532707
H      5.874911   -1.676329   -0.340164
