52

C     -5.364300    0.225772    0.587358
C     -4.755767    1.004842   -0.573817
C     -3.617222    0.308262   -1.404381
C     -3.814343    0.816504   -2.862788
C     -3.808969   -1.221390   -1.447542
N     -2.263860    0.712562   -0.916833
C     -1.133644    0.453307   -1.835621
C      0.197375    1.065340   -1.352057
O      0.375474    2.280883   -1.325356
N      1.114952    0.098967   -0.966091
C      2.429537    0.293240   -0.500043
C      3.055595    1.537605   -0.412418
C      4.369151    1.640862    0.054704
C      5.056648    0.496295    0.440632
O      6.391484    0.672805    0.840456
C      6.893290   -0.041553    1.927541
C      8.343994    0.301187    2.096851
O      6.282643   -0.824107    2.643848
C      4.456049   -0.754362    0.342674
C      3.141718   -0.850117   -0.119909
C     -1.949151    0.504600    0.499716
C     -1.567666   -0.899863    0.882074
C     -2.141472   -1.538973    2.126499
C     -0.699335   -1.113012    2.106137
H     -6.026999    0.878663    1.162828
H     -5.968851   -0.611935    0.222060
H     -4.619319   -0.170647    1.273026
H     -4.393364    1.974198   -0.202974
H     -5.594857    1.261659   -1.235871
H     -4.845021    0.653206   -3.202283
H     -3.608400    1.890230   -2.942682
H     -3.177031    0.284378   -3.577531
H     -4.783456   -1.478316   -1.884131
H     -3.044883   -1.709789   -2.063657
H     -3.772231   -1.677750   -0.455235
H     -1.296858    0.922008   -2.809798
H     -1.011886   -0.616805   -2.020653
H      0.784606   -0.857848   -0.953822
H      2.549566    2.451989   -0.703512
H      4.847407    2.612890    0.108934
H      8.893587    0.044117    1.185393
H      8.758517   -0.280594    2.927330
H      8.450311    1.365470    2.324689
H      4.987656   -1.657433    0.626877
H      2.685842   -1.835558   -0.175594
H     -1.125021    1.174324    0.777421
H     -2.761200    0.865337    1.134927
H     -1.381162   -1.555760    0.038623
H     -2.824808   -0.969034    2.745940
H     -2.355684   -2.602988    2.088834
H      0.065646   -1.886362    2.066971
H     -0.424287   -0.254201    2.712259
