25

C      3.382742   -0.140316    0.813317
C      3.018181   -0.501437   -0.622725
C      2.190116    0.549130   -1.360084
Br     3.249927    2.141633   -1.744693
C      0.903178    0.935944   -0.629306
O      0.767605    1.984035   -0.008178
N     -0.065512   -0.056015   -0.729284
C     -1.366969   -0.068346   -0.168504
C     -1.886716    0.975045    0.603722
C     -3.184584    0.897336    1.129542
Cl    -3.751145    2.230015    2.073885
C     -3.975960   -0.230072    0.885508
Cl    -5.581257   -0.389956    1.502921
C     -3.471019   -1.278668    0.117017
C     -2.178380   -1.195600   -0.403542
Cl    -1.596426   -2.525095   -1.349663
H      3.985334    0.770889    0.863725
H      3.968728   -0.949493    1.261676
H      2.489704    0.000542    1.429774
H      3.941696   -0.704680   -1.178873
H      2.458700   -1.444903   -0.598462
H      1.923535    0.174016   -2.355161
H      0.165581   -0.884180   -1.271614
H     -1.304908    1.867411    0.815238
H     -4.082153   -2.157234   -0.075295
