60

C      1.257252   -0.543355    3.010222
C      0.304696   -1.068310    1.946930
C      0.502237   -0.510723    0.513374
C      1.873799   -0.852608   -0.118562
C      2.129070   -2.335596   -0.272607
C      3.072598   -2.984398    0.535092
C      3.299163   -4.354729    0.397179
C      2.587807   -5.088841   -0.549622
C      1.650433   -4.453599   -1.361255
C      1.422172   -3.083631   -1.225096
N      0.142834    0.938283    0.433842
C      1.164976    1.954279    0.730718
C      1.787048    2.580507   -0.534472
C      0.852825    3.500690   -1.321336
C      0.888307    4.829872   -0.575331
C      2.234775    4.867722    0.146608
C      2.922580    3.542876   -0.171959
C     -1.192450    1.379864    0.434716
O     -1.540958    2.512573    0.760840
C     -2.256939    0.456967   -0.011273
C     -3.290260    0.132988    0.871142
C     -4.315485   -0.724981    0.458922
C     -5.402882   -1.120469    1.413720
C     -4.285294   -1.251210   -0.841856
C     -3.273757   -0.893328   -1.746106
C     -3.253885   -1.469854   -3.130680
C     -2.255716   -0.033039   -1.321997
H      1.090457   -1.077272    3.951866
H      2.303875   -0.686731    2.730520
H      1.086201    0.518316    3.208124
H      0.390396   -2.161294    1.920492
H     -0.718825   -0.860251    2.280824
H     -0.238141   -1.045950   -0.086855
H      2.696083   -0.395786    0.442977
H      1.926161   -0.415048   -1.123516
H      3.638046   -2.428836    1.279664
H      4.031898   -4.849931    1.029001
H      2.765546   -6.155677   -0.656059
H      1.097301   -5.025466   -2.101649
H      0.688874   -2.603401   -1.869281
H      0.730201    2.731585    1.369282
H      1.956515    1.494276    1.328699
H      2.164620    1.788593   -1.187676
H      1.258827    3.648488   -2.330625
H     -0.161526    3.115283   -1.442621
H      0.072621    4.883734    0.154439
H      0.769936    5.675223   -1.260587
H      2.844808    5.717668   -0.175785
H      2.076715    4.969531    1.226302
H      3.579677    3.677103   -1.040592
H      3.543726    3.190060    0.657111
H     -3.287822    0.551378    1.875258
H     -5.110232   -2.021505    1.961513
H     -6.338295   -1.318113    0.879725
H     -5.602917   -0.318558    2.132219
H     -5.068824   -1.938104   -1.158971
H     -4.271368   -1.650109   -3.493342
H     -2.775882   -0.780333   -3.834588
H     -2.703386   -2.415771   -3.133402
H     -1.460210    0.258951   -2.003623
