54

C     -1.264306    2.472710    0.307729
C     -0.668506    1.867748   -0.956323
C     -0.458660    0.336098   -0.876115
C      0.734057   -0.041244   -1.793572
C      1.238901   -1.484704   -1.691601
C      1.699609   -1.973974   -0.306553
N      2.870130   -1.354317    0.325123
C      2.565863   -0.161506    1.115526
C      3.775488    0.268684    1.942972
C      4.996338    0.472671    1.055219
O      6.123516    0.771513    1.874317
C      5.262688   -0.777632    0.224624
C      4.018038   -1.182280   -0.562920
C     -1.722751   -0.468861   -1.288478
N     -2.887845   -0.307514   -0.406019
C     -3.931399    0.447003   -0.964968
O     -3.793048    1.114492   -1.996531
C     -5.292729    0.408895   -0.331009
C     -5.279233    0.903122    1.092571
C     -4.922533   -0.242211    1.999776
N     -3.572894   -0.724279    1.862137
C     -2.749546   -0.943123    0.822023
O     -1.814706   -1.716076    1.061939
H     -2.277539    2.120695    0.500084
H     -1.308598    3.562736    0.213571
H     -0.647506    2.237622    1.181141
H      0.297239    2.365292   -1.110779
H     -1.286052    2.127275   -1.823374
H     -0.189063    0.089204    0.155468
H      0.446575    0.144372   -2.837352
H      1.578290    0.630395   -1.603108
H      0.456024   -2.165581   -2.046037
H      2.058149   -1.610992   -2.410692
H      1.945360   -3.038451   -0.423510
H      0.853107   -1.972962    0.389732
H      1.740701   -0.366671    1.807876
H      2.257738    0.673671    0.479336
H      3.551339    1.194148    2.487129
H      3.994867   -0.483233    2.712841
H      4.830866    1.332229    0.394558
H      6.900648    0.834444    1.293756
H      5.582277   -1.599283    0.879378
H      6.100469   -0.599735   -0.460296
H      3.815461   -0.422347   -1.327291
H      4.235304   -2.122709   -1.083423
H     -1.488226   -1.539709   -1.300451
H     -1.980901   -0.227841   -2.326751
H     -5.704431   -0.601768   -0.431080
H     -5.942473    1.068563   -0.920520
H     -6.281240    1.259694    1.358476
H     -4.586410    1.741771    1.223609
H     -5.034278    0.068661    3.044396
H     -5.590973   -1.096904    1.845471
H     -3.253194   -1.287802    2.642887
