40

C     -2.340449    1.089228    2.477976
C     -2.500951   -0.418281    2.315532
C     -1.855139   -1.022236    1.052477
N     -0.405549   -0.866172    1.077015
C      0.428802   -1.784436    0.473287
O      0.043655   -2.877589    0.063251
C      1.889749   -1.439792    0.483490
S      2.176002    0.103930   -0.331031
O      1.581260    1.143667    0.493552
O      1.787476   -0.037719   -1.720539
C      3.967656    0.303129   -0.292639
C      4.367716    1.550471   -1.077703
C      4.507847    0.376244    1.130817
C     -2.486884   -0.502273   -0.230627
C     -1.970350    0.593171   -0.941253
C     -2.592016    1.046035   -2.107531
C     -3.741665    0.417044   -2.578159
C     -4.271754   -0.666744   -1.883778
C     -3.650296   -1.121982   -0.719110
H     -2.796413    1.410091    3.420567
H     -2.836877    1.636715    1.671839
H     -1.287545    1.384101    2.503743
H     -2.065480   -0.902722    3.198973
H     -3.572693   -0.653585    2.326749
H     -2.044765   -2.103723    1.088930
H     -0.057438    0.083211    1.191352
H      2.454421   -2.208948   -0.050325
H      2.230447   -1.375246    1.518810
H      4.380878   -0.578020   -0.796846
H      5.456340    1.666683   -1.096783
H      3.935697    2.454766   -0.635582
H      4.020827    1.491251   -2.114580
H      5.592664    0.527196    1.126034
H      4.311951   -0.548403    1.680716
H      4.054697    1.200548    1.691396
H     -1.076474    1.110658   -0.602765
H     -2.171774    1.888821   -2.650383
H     -4.220282    0.768658   -3.487930
H     -5.166093   -1.162775   -2.251163
H     -4.077200   -1.974974   -0.195404
