45

C     -3.800182    1.797107   -0.403373
C     -2.664925    0.789819   -0.562642
C     -2.491472   -0.223005    0.600572
C     -3.795691   -1.043517    0.770294
C     -2.221443    0.480957    1.955898
O     -1.201648    1.467245    1.874666
C     -1.372178   -1.265667    0.267230
C      0.037244   -0.706664    0.043882
C      1.131112   -1.803678   -0.041518
C      1.890508   -0.956878   -1.103456
C      2.363180   -1.850926   -2.266124
C      3.102390   -0.120940   -0.618586
C      2.862930    0.747217    0.620309
C      4.111673    1.526388    1.022594
O      4.458098    2.442746   -0.006036
C      0.547654   -0.158599   -1.335755
C     -0.226993   -0.524272   -2.510043
N     -0.848560   -0.812016   -3.447111
H     -3.694060    2.393007    0.506857
H     -3.800193    2.489071   -1.252399
H     -4.776694    1.305191   -0.386478
H     -2.842883    0.239855   -1.494579
H     -1.739432    1.357741   -0.705748
H     -4.634140   -0.417754    1.093313
H     -4.082264   -1.529152   -0.169372
H     -3.672790   -1.827724    1.526556
H     -1.913544   -0.251048    2.710981
H     -3.123674    0.969170    2.341802
H     -1.587629    2.257171    1.459074
H     -1.675841   -1.864721   -0.600889
H     -1.318817   -1.975750    1.104927
H      0.288137   -0.023725    0.860950
H      1.668171   -2.002509    0.891134
H      0.756049   -2.765987   -0.413693
H      1.576497   -2.525777   -2.619907
H      2.692519   -1.241976   -3.115160
H      3.205326   -2.479244   -1.954465
H      3.432364    0.519488   -1.446622
H      3.936223   -0.801034   -0.399470
H      2.058878    1.463175    0.420227
H      2.556804    0.123845    1.466571
H      3.919889    2.093494    1.938973
H      4.956769    0.852570    1.196012
H      5.244648    2.927696    0.297744
H      0.687991    0.929607   -1.314679
