50

C     -4.296682    2.945512    1.021928
C     -3.826453    1.823982    1.936701
C     -3.142687    0.606789    1.274529
N     -1.843105    0.994178    0.741447
C     -0.766434    0.146556    0.717194
N     -0.723509   -1.077113    1.150579
N      0.591821   -1.589266    0.962708
C      1.315774   -0.663727    0.407986
C      2.748202   -0.800381    0.083063
C      3.448942   -1.919978    0.547281
C      4.816072   -2.053402    0.285338
C      5.502557   -1.073974   -0.450518
C      6.981849   -1.255584   -0.711820
O      7.544970   -0.110461   -1.355600
C      8.910222   -0.315845   -1.689724
C      4.785145    0.036248   -0.924134
C      3.419137    0.177939   -0.656252
C      0.544816    0.587439    0.144491
C     -3.927345   -0.188216    0.208041
C     -5.383120   -0.501411    0.590570
C     -5.984476   -1.197089   -0.625102
S     -5.387887   -0.255078   -2.016563
O     -6.322746    0.825009   -2.269707
O     -4.961416   -1.168290   -3.057181
C     -3.952738    0.431320   -1.199354
H     -5.152366    2.639611    0.412064
H     -4.624950    3.800263    1.626115
H     -3.498725    3.297626    0.361905
H     -4.684554    1.478923    2.526635
H     -3.123227    2.259338    2.661807
H     -2.970017   -0.090086    2.108845
H     -1.725005    1.945183    0.409307
H      2.940727   -2.686195    1.132184
H      5.345580   -2.923616    0.672732
H      7.491659   -1.397851    0.247272
H      7.124448   -2.142481   -1.342109
H      8.999247   -1.070700   -2.479458
H      9.316425    0.629601   -2.066609
H      9.485899   -0.616316   -0.807558
H      5.290976    0.809738   -1.501110
H      2.908754    1.060225   -1.032964
H      0.447611    0.787507   -0.925586
H      0.945351    1.442225    0.692202
H     -3.418783   -1.160875    0.097625
H     -5.944317    0.417973    0.796746
H     -5.440280   -1.140892    1.477816
H     -7.076313   -1.200615   -0.621251
H     -5.605181   -2.220009   -0.723731
H     -3.061730    0.159387   -1.773792
H     -4.062138    1.516879   -1.201251
