45

C     -4.311319    1.246810   -1.247938
C     -3.125561    1.014739   -0.315531
C     -2.522376   -0.423105   -0.326650
C     -2.090789   -0.802238   -1.771738
C     -3.593661   -1.496476    0.065996
N     -4.249431   -1.298525    1.352482
C     -1.265252   -0.540088    0.627534
C     -1.442456    0.014631    2.048789
C      0.014133    0.106883    0.073352
O      0.025937    1.102680   -0.641441
N      1.171803   -0.514665    0.505953
C      2.488254    0.036203    0.216859
C      2.831724    1.164272    1.199195
C      4.237903    1.709184    0.962590
C      5.285802    0.600952    0.999570
C      4.949558   -0.522983    0.024173
C      3.545669   -1.072300    0.262449
H     -4.656509    2.282055   -1.153501
H     -4.039609    1.088917   -2.295297
H     -5.156041    0.597817   -1.002279
H     -3.448142    1.281477    0.697125
H     -2.353340    1.743472   -0.584597
H     -1.487248   -0.020740   -2.242550
H     -2.956372   -0.965767   -2.423642
H     -1.507735   -1.730533   -1.776272
H     -3.121279   -2.486758    0.079623
H     -4.374764   -1.549907   -0.701786
H     -4.782669   -0.429619    1.336590
H     -4.934252   -2.039892    1.498889
H     -1.044726   -1.613548    0.724337
H     -0.536977   -0.145461    2.646051
H     -1.619680    1.095004    2.040945
H     -2.256342   -0.469279    2.589608
H      1.095277   -1.186053    1.259174
H      2.461174    0.453729   -0.798164
H      2.753135    0.795100    2.230311
H      2.106038    1.981396    1.108590
H      4.273907    2.213132   -0.011112
H      4.473003    2.463921    1.721488
H      5.350498    0.194203    2.016305
H      6.270704    1.016365    0.758398
H      5.683386   -1.330500    0.125250
H      5.025266   -0.149074   -1.004308
H      3.515043   -1.579004    1.236096
H      3.318315   -1.836428   -0.490911
