41

C     -3.187528    1.941193   -1.191901
C     -2.331199    1.570891    0.015104
C     -1.753559    0.138457   -0.069883
N     -0.860765   -0.169601    1.057333
C      0.442538    0.497799    0.973886
C      1.371738   -0.021422    2.079627
S      2.973293    0.864205    2.106210
C      3.690514    0.291693    0.560640
C      3.927137   -1.076331    0.367903
C      4.483143   -1.535784   -0.826192
C      4.825409   -0.629987   -1.826083
C      4.607329    0.735867   -1.635716
C      4.008691    1.210504   -0.462431
N      3.923771    2.599530   -0.257717
C     -2.834429   -0.932504   -0.125972
C     -2.800924   -1.906758   -1.131077
C     -3.791067   -2.877354   -1.159669
N     -4.799875   -2.949895   -0.266777
C     -4.808566   -2.015954    0.706735
C     -3.863891   -1.006542    0.820584
H     -4.090458    1.326600   -1.252474
H     -2.624121    1.822087   -2.122856
H     -3.503076    2.987101   -1.119882
H     -2.922226    1.706986    0.928697
H     -1.513056    2.298594    0.066061
H     -1.175374    0.069656   -1.001621
H     -1.321926    0.063947    1.934837
H      0.319135    1.581020    1.080157
H      0.890678    0.297881   -0.005843
H      0.907117    0.141887    3.058735
H      1.538280   -1.099118    1.980553
H      3.696745   -1.794338    1.150691
H      4.667163   -2.597883   -0.966665
H      5.283254   -0.982554   -2.746759
H      4.919958    1.433116   -2.408637
H      3.306287    2.841021    0.514111
H      3.767178    3.143726   -1.097890
H     -2.015242   -1.918493   -1.879189
H     -3.795592   -3.647181   -1.925888
H     -5.621651   -2.102343    1.421766
H     -3.934834   -0.299723    1.639246
