33

C     -0.934086   -2.869193   -1.029082
C     -1.758696   -1.816315   -0.294898
C     -1.111564   -0.417377   -0.314621
C     -2.011853    0.658372    0.333549
C     -3.317250    0.913817   -0.433583
C     -4.126999    2.069543    0.150143
N     -3.493280    3.380733   -0.172517
O     -3.212714    4.024352    0.844662
C      0.204919   -0.434353    0.391297
N      0.486546   -0.748254    1.636901
N      1.851492   -0.600563    1.769653
C      2.314888   -0.205396    0.596290
C      3.692829    0.060090    0.317614
C      4.779885   -0.026090    1.173922
C      5.930593    0.335743    0.432840
C      5.488001    0.623148   -0.834598
O      4.143667    0.460553   -0.916904
O      1.308126   -0.080772   -0.333242
H     -0.746732   -2.567598   -2.064560
H     -1.473464   -3.821768   -1.046656
H      0.028779   -3.042715   -0.539139
H     -1.922328   -2.147811    0.738169
H     -2.741822   -1.780073   -0.775897
H     -0.941146   -0.130935   -1.361190
H     -1.443867    1.595959    0.397074
H     -2.250068    0.374152    1.367329
H     -3.095987    1.101123   -1.491725
H     -3.943623    0.016169   -0.388951
H     -4.248359    1.969772    1.233944
H     -5.120689    2.100794   -0.308217
H      4.734704   -0.317773    2.215142
H      6.953379    0.381568    0.779932
H      5.976717    0.941099   -1.745368
