54

C     -2.166272    2.752564   -2.081768
C     -1.614030    1.508033   -1.402913
C     -2.087851    1.341617    0.056243
C     -3.625569    1.249456    0.229926
N     -4.375559    0.513019   -0.802342
C     -5.822942    0.825399   -0.773154
C     -6.691437   -0.291672   -0.175165
O     -6.570702   -1.531097   -0.883461
C     -5.273923   -1.713782   -1.467961
C     -4.168130   -0.949354   -0.721183
C     -1.332642    0.210888    0.767840
O     -1.886895   -0.791177    1.206061
N      0.021459    0.467910    0.884019
C      1.013505   -0.332980    1.413548
C      0.882852   -1.600675    1.829590
C      2.007251   -2.335119    2.354342
C      3.210832   -1.760006    2.439811
N      3.410096   -0.451515    2.035522
C      4.741961    0.138906    2.146095
C      5.629450   -0.195693    0.967747
C      6.604480   -1.199629    1.064920
C      7.418924   -1.503773   -0.028358
C      7.265000   -0.811997   -1.228263
C      6.296598    0.183371   -1.338465
C      5.482184    0.489364   -0.247157
C      2.377334    0.321106    1.508393
O      2.494065    1.488551    1.129128
H     -1.897832    3.655437   -1.526006
H     -3.254823    2.718097   -2.177003
H     -1.749543    2.843769   -3.090432
H     -0.519651    1.571669   -1.439465
H     -1.873507    0.623615   -1.994254
H     -1.788606    2.252737    0.598200
H     -3.883851    0.888320    1.232423
H     -3.969581    2.291662    0.198218
H     -6.027092    1.774751   -0.262670
H     -6.129503    0.970096   -1.815962
H     -6.431179   -0.470041    0.873462
H     -7.747095   -0.003847   -0.204950
H     -5.058085   -2.786226   -1.465998
H     -5.325546   -1.397532   -2.516286
H     -4.182402   -1.282801    0.323221
H     -3.199259   -1.211135   -1.160131
H      0.362307    1.388171    0.607254
H     -0.062321   -2.129832    1.782754
H      1.848683   -3.358660    2.673753
H      4.068381   -2.300092    2.829254
H      5.203108   -0.202684    3.081610
H      4.662464    1.230582    2.236302
H      6.738780   -1.749612    1.993632
H      8.174360   -2.280994    0.056366
H      7.898567   -1.049274   -2.079088
H      6.173474    0.722841   -2.274002
H      4.729712    1.269268   -0.348287
