60

C      6.913728    1.836631    1.291831
C      7.337288    1.401407   -0.101997
C      6.908751    0.012840   -0.428588
C      7.683806   -1.121036   -0.379998
O      6.956131   -2.191648   -0.758436
N      5.676736   -1.792343   -1.063407
C      5.624769   -0.461806   -0.870845
C      4.412507    0.354800   -1.100614
O      4.454359    1.581622   -0.955473
N      3.217114   -0.244129   -1.475855
C      2.920074   -1.660203   -1.684696
C      1.474559   -1.683725   -2.182015
C      0.846942   -0.446927   -1.533719
N      0.493448   -0.742613   -0.138113
C     -0.905978   -1.096042    0.051418
C     -1.836070    0.128760   -0.076386
C     -3.120603   -0.123153    0.723353
C     -2.788507   -0.318047    2.209483
C     -1.387174   -0.899485    2.383439
O     -1.055785   -1.762439    1.306600
C     -4.018050   -1.243763    0.120120
N     -5.099909   -0.281822   -0.114054
C     -6.240450   -0.542538    0.769068
C     -7.170459    0.675366    0.791507
C     -6.407670    1.993386    0.982382
C     -4.966795    1.732865    1.413332
C     -4.285959    0.854589    0.358857
C      2.014932    0.554923   -1.632261
H      7.334519    1.179492    2.058230
H      5.824861    1.822789    1.404346
H      7.262396    2.855331    1.489547
H      6.941801    2.101411   -0.846006
H      8.431242    1.473175   -0.177038
H      8.712470   -1.323502   -0.121171
H      3.595288   -2.093005   -2.429395
H      3.023612   -2.188032   -0.728189
H      1.459960   -1.564108   -3.273251
H      0.964000   -2.624471   -1.945437
H     -0.008193   -0.069465   -2.104032
H      0.727347    0.032238    0.474489
H     -1.191042   -1.846504   -0.694881
H     -2.051073    0.324916   -1.136224
H     -1.345782    1.033305    0.310929
H     -3.524020   -0.978604    2.685172
H     -2.822757    0.630905    2.755939
H     -0.633344   -0.107389    2.468063
H     -1.343185   -1.477347    3.313455
H     -3.645994   -1.683049   -0.813006
H     -4.248298   -2.082481    0.789092
H     -5.931497   -0.784611    1.795541
H     -6.798849   -1.410701    0.398255
H     -7.749299    0.727504   -0.140354
H     -7.898716    0.551913    1.603078
H     -6.920503    2.623761    1.716878
H     -6.410000    2.547582    0.034840
H     -4.971726    1.262271    2.402022
H     -4.424293    2.678977    1.515894
H     -4.021894    1.506648   -0.487300
H      2.050740    1.001529   -2.633644
H      1.960497    1.364052   -0.897085
