39

C     -1.729786   -2.664380    0.580893
C     -1.620387   -1.273135    1.199564
C     -1.948409   -0.130288    0.211588
O     -1.196829   -0.271665   -0.996087
C      0.106908    0.278891   -1.119441
C      1.175968   -0.405179   -0.277481
C      2.579143    0.007860   -0.716799
C      3.654372   -0.607249    0.158039
O      3.417776   -1.263396    1.165409
N      4.929253   -0.337229   -0.293254
C      6.086380   -0.763915    0.452365
C     -1.809437    1.236004    0.918897
C     -2.400409    2.379011    0.093028
C     -3.820325    2.044685   -0.340810
C     -3.867657    0.671075   -0.989534
O     -3.345093   -0.318547   -0.108464
H     -1.029064   -2.791927   -0.249187
H     -2.741139   -2.857047    0.209895
H     -1.499348   -3.426186    1.332712
H     -2.317651   -1.232137    2.046696
H     -0.617339   -1.160301    1.617373
H      0.097913    1.357600   -0.940095
H      0.370275    0.158997   -2.176976
H      1.067847   -1.494037   -0.341161
H      1.041186   -0.139204    0.775703
H      2.752982   -0.305508   -1.752893
H      2.682447    1.098104   -0.664410
H      5.054888    0.349563   -1.025127
H      6.241613   -0.070235    1.282852
H      5.936582   -1.773591    0.844045
H      6.953703   -0.746153   -0.211509
H     -0.766708    1.462252    1.163220
H     -2.357086    1.203507    1.870531
H     -2.397317    3.303601    0.681087
H     -1.786607    2.565956   -0.794525
H     -4.467118    2.046733    0.545223
H     -4.199636    2.807189   -1.029005
H     -4.906894    0.403585   -1.206503
H     -3.324996    0.656697   -1.941444
