43

C     -3.511723    2.665567   -2.021509
C     -2.716589    1.369070   -2.043232
C     -2.857142    0.592896   -0.774806
N     -3.942480   -0.160562   -0.574063
N     -3.755912   -0.701285    0.640985
C     -4.780765   -1.560705    1.187268
C     -2.564487   -0.345987    1.220471
C     -2.117767   -0.833184    2.559205
C     -1.250710   -2.077198    2.442773
C     -1.950570    0.512087    0.316708
C     -0.633185    1.189434    0.444679
N      0.352926    0.371605   -0.222862
C      1.671965    0.768932   -0.215972
O      2.038770    1.827959    0.276191
N      2.463393   -0.167651   -0.844771
C      3.868669   -0.171033   -0.944818
C      4.697266    0.680241   -0.207473
C      6.087264    0.608971   -0.342357
C      6.651439   -0.315743   -1.213852
F      7.986602   -0.367838   -1.325793
C      5.839482   -1.170651   -1.951779
Cl     6.527705   -2.314238   -3.035085
C      4.450153   -1.103406   -1.815811
H     -3.339544    3.230993   -2.942612
H     -3.228614    3.294023   -1.168149
H     -4.587230    2.465777   -1.945045
H     -3.048335    0.753033   -2.888862
H     -1.661898    1.595761   -2.229508
H     -5.147012   -1.112460    2.115881
H     -4.346336   -2.545912    1.371869
H     -5.606164   -1.645888    0.473605
H     -1.550986   -0.044975    3.065927
H     -2.978956   -1.048229    3.202341
H     -0.348045   -1.882469    1.853163
H     -0.935429   -2.416414    3.435227
H     -1.795842   -2.897730    1.961050
H     -0.641325    2.183343   -0.016451
H     -0.340114    1.313636    1.493694
H      0.193018   -0.623059   -0.195328
H      1.961051   -0.814786   -1.435144
H      4.289228    1.406580    0.492014
H      6.729350    1.270933    0.229209
H      3.828881   -1.779441   -2.399431
