56

C      0.152731    2.822240   -3.069111
C      0.696342    1.499065   -2.548116
C      0.606281    1.388253   -1.014174
C     -0.823197    1.491792   -0.423521
N     -1.840693    0.628037   -1.032923
C     -1.667481   -0.799150   -0.754195
C     -2.902393   -1.616766   -1.170770
C     -4.050474   -1.521347   -0.192990
C     -4.924852   -0.425720   -0.225666
C     -5.991527   -0.326320    0.677740
C     -6.893493    0.871261    0.650520
C     -6.164281   -1.326995    1.639948
C     -5.298301   -2.419563    1.683873
C     -4.246923   -2.517155    0.772510
C      1.632373    2.251556   -0.226470
C      2.536735    1.005256   -0.229353
C      3.196483    0.662667    1.103831
C      3.951379   -0.671405    1.056734
C      5.247524   -0.567813    0.304952
C      6.527995   -0.197593    1.017925
N      6.350087   -1.522762    0.432805
C      6.174732   -2.588384    1.411027
N      1.344530    0.177765   -0.527604
H      0.290607    2.882225   -4.153441
H      0.667647    3.674056   -2.615327
H     -0.916854    2.927382   -2.865641
H      1.737445    1.406964   -2.882953
H      0.152814    0.674829   -3.025352
H     -1.171668    2.525632   -0.536861
H     -0.807824    1.317799    0.660785
H     -1.885103    0.782342   -2.038250
H     -0.814821   -1.175661   -1.329012
H     -1.460604   -0.965348    0.309825
H     -2.606867   -2.670069   -1.263880
H     -3.245496   -1.323326   -2.171241
H     -4.764539    0.363237   -0.958821
H     -7.879517    0.629877    1.061390
H     -7.046527    1.218908   -0.376618
H     -6.455532    1.683192    1.239044
H     -6.973743   -1.260352    2.362710
H     -5.440867   -3.194219    2.432701
H     -3.579734   -3.373946    0.823735
H      1.297972    2.565856    0.770326
H      2.043439    3.125650   -0.739746
H      3.254028    1.027064   -1.059342
H      3.887526    1.466864    1.385325
H      2.438279    0.608944    1.895894
H      4.130997   -0.976683    2.094018
H      3.331208   -1.449980    0.598372
H      5.108128   -0.213763   -0.710150
H      7.221097    0.455490    0.501072
H      6.524368   -0.096740    2.095776
H      5.394824   -3.281454    1.079500
H      5.930121   -2.250091    2.424068
H      7.106863   -3.158901    1.483204
H      0.918756   -0.242696    0.299169
