65

C      0.250853   -0.938864   -2.031051
C     -0.572429   -1.944668   -1.237593
C     -0.894051   -1.614174    0.254490
C      0.351750   -1.814909    1.168278
N      1.385783   -0.807244    1.010470
C      2.715743   -1.128335    0.816934
O      3.134360   -2.276490    0.733868
C      3.598191    0.098500    0.713264
C      5.026413   -0.264498    0.306934
N      5.827149    0.937073    0.001366
C      7.063042    0.565530   -0.726205
C      7.907793    1.810953   -1.038956
O      8.267330    2.507793    0.162735
C      7.086600    2.896363    0.876207
C      6.217356    1.676881    1.223131
C     -1.946849   -2.641178    0.667400
C     -3.242824   -2.314648    0.658490
O     -4.295447   -3.192677    0.804867
C     -5.470423   -2.481727    0.501034
N     -6.637004   -3.195806    0.495360
C     -5.246132   -1.172737    0.257379
C     -6.180528   -0.098123   -0.069879
C     -6.471228    0.960398    0.977620
C     -7.547595    0.005221    0.573653
C     -3.789900   -1.011430    0.325659
C     -2.950972    0.032721    0.149444
C     -3.302783    1.440548   -0.238269
O     -2.642032    1.743740   -1.468047
C     -2.889387    3.080422   -1.880561
C     -1.462519   -0.169360    0.441880
H      0.492341   -1.359825   -3.011551
H     -0.314761   -0.019988   -2.214270
H      1.188336   -0.670063   -1.539082
H     -0.058402   -2.915067   -1.281033
H     -1.510114   -2.084413   -1.794291
H      0.780390   -2.812721    1.011899
H      0.053500   -1.768143    2.224586
H      1.157837    0.156813    1.228482
H      3.584214    0.600755    1.686073
H      3.159447    0.774517   -0.031679
H      5.505513   -0.871843    1.085196
H      4.972944   -0.894385   -0.589672
H      6.807193    0.069040   -1.669006
H      7.659732   -0.131913   -0.122299
H      7.371235    2.494311   -1.707845
H      8.835552    1.519394   -1.539924
H      6.523969    3.621123    0.278137
H      7.404817    3.398368    1.795322
H      6.780566    1.018022    1.894499
H      5.330494    2.031463    1.756249
H     -1.653017   -3.671387    0.846233
H     -7.457148   -2.623121    0.644335
H     -6.591756   -3.990306    1.126994
H     -6.119394    0.225668   -1.104812
H     -6.564534    1.990838    0.652922
H     -6.044717    0.851106    1.970572
H     -7.872911   -0.700479    1.326091
H     -8.360117    0.381309   -0.040869
H     -2.957822    2.129873    0.543262
H     -4.368576    1.600821   -0.376888
H     -2.406414    3.236732   -2.849151
H     -3.963973    3.260029   -1.993627
H     -2.467039    3.785365   -1.158964
H     -1.322585    0.141193    1.488058
H     -0.865059    0.537639   -0.142607
