56

C     -5.745418   -3.311253   -0.111661
C     -6.024489   -1.920565   -0.661950
C     -5.387719   -0.812872    0.179536
C     -5.728786    0.591987   -0.333733
C     -4.438840    1.407343   -0.238850
C     -3.481743    0.577850    0.632048
N     -2.066215    0.926357    0.434628
C     -1.147274    0.066833    1.182250
C      0.286703    0.281596    0.685202
C      0.619295    1.756799    0.407309
C      2.055570    2.069330    0.805574
O      2.358649    2.877781    1.676378
N      2.991121    1.356570    0.089512
C      4.402238    1.583885    0.290442
C      5.219523    0.582206   -0.481903
C      5.920372    0.974083   -1.645633
C      6.666585    0.048125   -2.381913
C      6.688812   -1.255829   -1.938307
O      7.353643   -2.284742   -2.528253
C      7.002568   -3.373499   -1.649489
O      6.146708   -2.977313   -0.557448
C      6.004349   -1.649597   -0.813452
C      5.264184   -0.759447   -0.064611
C     -0.371111    2.670276    1.126063
C     -1.814553    2.352886    0.721266
C     -3.856989   -0.849282    0.210729
H     -6.089042   -3.400080    0.924027
H     -6.270660   -4.064410   -0.707930
H     -4.676710   -3.545722   -0.143010
H     -5.663089   -1.866219   -1.695661
H     -7.110045   -1.768083   -0.695670
H     -5.757673   -0.897347    1.211024
H     -6.515091    1.037094    0.285723
H     -6.095387    0.585735   -1.366220
H     -4.624368    2.403607    0.175947
H     -4.026737    1.541561   -1.247365
H     -3.753592    0.714087    1.689145
H     -1.217523    0.260640    2.260448
H     -1.373844   -0.994895    1.038798
H      0.974867   -0.150551    1.421874
H      0.438954   -0.287231   -0.242275
H      0.536718    1.948292   -0.672144
H      2.699530    0.875378   -0.752115
H      4.628599    2.608294   -0.027204
H      4.632961    1.520401    1.360391
H      5.884297    2.008892   -1.982553
H      7.208249    0.343472   -3.273801
H      7.923478   -3.801354   -1.236803
H      6.488206   -4.142927   -2.236346
H      4.730430   -1.093802    0.819372
H     -0.263146    2.551834    2.212778
H     -0.152710    3.722918    0.909550
H     -2.466466    2.719893    1.524523
H     -2.059399    2.928818   -0.179150
H     -3.497889   -1.602460    0.919245
H     -3.450104   -1.085343   -0.781409
