66

C     -5.955434    4.429855   -0.890197
C     -4.465367    4.177770   -1.070880
C     -4.106149    2.735616   -0.854669
C     -4.012884    2.187587    0.422109
C     -3.696364    0.837536    0.573842
C     -3.465942    0.061574   -0.551874
N     -3.144037   -1.287066   -0.505473
C     -1.856039   -1.780206    0.094172
C     -0.657441   -0.913389   -0.477214
C     -0.380719   -1.129168   -1.978462
C      0.602444   -0.095339   -2.538891
C      1.445280    0.592878   -1.468673
N      1.792819   -0.328615   -0.391506
C      3.050070   -0.441751    0.196146
O      3.237206   -1.161621    1.179025
C      4.182718    0.353508   -0.434653
C      5.520774    0.142925    0.282301
C      6.647993    0.783878   -0.479650
C      7.105802    1.884139    0.126141
C      6.370476    2.166350    1.392497
C      5.606426    0.865085    1.639741
C      0.682180   -1.019679    0.272906
C     -1.979456   -1.710525    1.644727
C     -1.108367   -2.678902    2.449634
C     -1.195303   -4.109693    1.947253
C     -0.895986   -4.194317    0.460298
C     -1.818592   -3.284278   -0.337341
N     -3.570676    0.567644   -1.795353
C     -3.885154    1.877551   -1.922157
H     -6.186047    5.483522   -1.079301
H     -6.548605    3.820943   -1.582340
H     -6.278733    4.190205    0.129071
H     -4.164107    4.491665   -2.078411
H     -3.893388    4.801970   -0.373494
H     -4.199713    2.795573    1.302993
H     -3.672632    0.406178    1.566083
H     -3.173135   -1.539561   -1.495652
H     -0.952336    0.138921   -0.366340
H     -1.298533   -1.100298   -2.573685
H      0.057246   -2.124046   -2.127364
H      0.058209    0.669327   -3.106227
H      1.260654   -0.598551   -3.258080
H      2.327121    1.032709   -1.938510
H      0.888522    1.421552   -1.014469
H      4.278739    0.023304   -1.476650
H      3.914641    1.417085   -0.422915
H      5.721415   -0.926645    0.417308
H      7.025418    0.399241   -1.418206
H      7.898276    2.512999   -0.255925
H      7.051575    2.386175    2.219409
H      5.690597    3.013425    1.256246
H      4.630994    1.052779    2.100317
H      6.175308    0.242625    2.343711
H      0.991910   -2.058686    0.396508
H      0.590608   -0.571757    1.268986
H     -1.767677   -0.694339    1.997028
H     -3.022006   -1.918840    1.924724
H     -1.422024   -2.647835    3.500378
H     -0.063709   -2.356463    2.445532
H     -2.199976   -4.504779    2.142319
H     -0.493787   -4.741801    2.503402
H     -1.038284   -5.229408    0.126949
H      0.151856   -3.955890    0.262538
H     -1.596545   -3.387246   -1.404768
H     -2.833254   -3.698004   -0.229672
H     -3.958880    2.224607   -2.949678
