58

C      5.241578   -2.898834    0.991106
C      4.228833   -1.931065    0.399047
C      3.069038   -2.675913   -0.267459
C      2.043004   -1.724611   -0.889535
C      1.146886   -1.035662    0.133716
O      1.222715   -1.318074    1.330673
N      0.250541   -0.084343   -0.352851
C     -0.070439    0.078561   -1.772462
C     -1.170338   -0.893877   -2.219263
C     -2.295119   -1.032183   -1.219542
C     -2.838736   -2.178281   -0.760864
C     -2.509978   -3.518447   -1.198561
C     -2.936070   -4.661745   -0.644803
O     -3.710312   -4.803341    0.471259
C     -2.792875    0.241918   -0.655560
C     -4.104747    0.629552   -0.990853
C     -4.659727    1.797757   -0.476708
C     -3.914694    2.585655    0.388790
C     -2.611247    2.212989    0.727380
C     -2.003071    1.055250    0.192217
C     -0.579417    0.643240    0.638491
C      0.272348    1.754323    1.288191
C      0.685418    1.574198    2.626107
C      1.465603    2.526992    3.277868
C      1.853050    3.677115    2.603393
C      1.463110    3.874389    1.277270
C      0.675297    2.925129    0.611093
O      0.254711    3.061807   -0.684084
C      0.500867    4.300507   -1.335329
H      5.664292   -3.547076    0.216869
H      4.778754   -3.531699    1.755040
H      6.063668   -2.347894    1.458640
H      3.858327   -1.274828    1.193835
H      4.731584   -1.293165   -0.337192
H      2.583307   -3.340237    0.457321
H      3.473257   -3.314984   -1.062487
H      2.567401   -0.966876   -1.481043
H      1.401403   -2.311661   -1.554487
H     -0.374915    1.110522   -1.967137
H      0.819192   -0.083283   -2.387338
H     -1.575198   -0.558677   -3.182154
H     -0.701741   -1.863808   -2.409312
H     -3.619150   -2.101126   -0.005780
H     -1.882776   -3.615916   -2.080824
H     -2.681774   -5.635496   -1.049621
H     -3.797895   -3.940784    0.909096
H     -4.703768    0.012928   -1.658528
H     -5.673653    2.083774   -0.742245
H     -4.345119    3.490491    0.810462
H     -2.075307    2.850536    1.427760
H     -0.797616   -0.082919    1.435879
H      0.413650    0.666017    3.163110
H      1.778363    2.361519    4.305463
H      2.467930    4.419524    3.105408
H      1.799209    4.782420    0.787888
H      1.573575    4.458662   -1.485761
H      0.047873    5.134425   -0.788989
H      0.030900    4.256605   -2.322599
