49

C     -4.931177    3.459278    0.476568
C     -3.904846    2.348716    0.304445
C     -4.531732    0.968148    0.537409
C     -3.589694   -0.221944    0.512145
C     -2.366747   -0.212276   -0.051269
C     -1.429694   -1.315056    0.013095
C     -0.239752   -1.380352   -0.606125
C      0.357665   -0.385524   -1.560750
N      1.294066    0.514333   -0.912697
N      0.929438    1.784354   -0.642775
N      1.971610    2.389579   -0.089066
C      3.002189    1.490611   -0.026900
C      4.307810    1.638024    0.461098
C      5.179805    0.540440    0.396210
O      6.481183    0.569741    0.842363
C      6.949812    1.775859    1.429103
C      4.746917   -0.689585   -0.152546
O      5.687021   -1.694528   -0.167578
C      5.296389   -2.962931   -0.672080
C      3.439065   -0.841154   -0.642614
C      2.597336    0.274619   -0.558760
O     -4.005099   -1.334267    1.234551
C     -5.216628   -1.934891    0.766331
C     -4.980128   -2.755943   -0.490293
H     -5.758215    3.341797   -0.230995
H     -4.467238    4.434517    0.298618
H     -5.343167    3.459558    1.490703
H     -3.080113    2.513034    1.007974
H     -3.492996    2.412641   -0.709281
H     -5.026843    0.983937    1.517442
H     -5.315238    0.808363   -0.213633
H     -2.033143    0.679792   -0.571994
H     -1.716341   -2.148981    0.654426
H      0.363761   -2.268532   -0.426323
H      0.904238   -0.914139   -2.350255
H     -0.402409    0.220547   -2.064983
H      4.594375    2.597908    0.868661
H      6.373109    2.030418    2.324382
H      6.941174    2.596600    0.704430
H      7.987581    1.616430    1.737271
H      4.482403   -3.391494   -0.078114
H      5.024105   -2.899484   -1.730692
H      6.156153   -3.634898   -0.590392
H      3.077784   -1.767921   -1.067530
H     -5.558134   -2.604996    1.563001
H     -6.012102   -1.196919    0.618864
H     -4.679308   -2.118665   -1.327856
H     -4.175440   -3.481348   -0.331786
H     -5.888807   -3.293416   -0.776294
