43

C     -0.070750    4.973275    0.163325
C     -0.451160    3.502038    0.223320
C      0.631719    2.673830    0.919381
C      0.248669    1.192791    1.069406
N     -0.041341    0.503794   -0.194963
C      1.110975    0.402330   -1.110013
C      2.264264   -0.444721   -0.631973
C      2.405766   -1.818986   -0.695122
C      3.651044   -2.286052   -0.162901
C      4.051623   -3.720321   -0.098884
C      4.423423   -1.226544    0.268825
S      3.667575    0.285347    0.028429
C     -0.716638   -0.792769    0.009370
C     -2.212385   -0.669745    0.367179
C     -2.835972   -2.015468    0.712624
C     -4.292362   -1.759995    0.417691
C     -4.213694   -0.894088   -0.821017
O     -2.976951   -0.172260   -0.751466
H     -0.856377    5.547651   -0.337521
H      0.062849    5.385576    1.168555
H      0.861155    5.114734   -0.393384
H     -0.612528    3.137718   -0.797335
H     -1.401336    3.398168    0.760031
H      0.802688    3.082190    1.923762
H      1.581915    2.778372    0.384775
H      1.031065    0.670112    1.632222
H     -0.636583    1.171221    1.715187
H      0.759668   -0.009186   -2.066672
H      1.462605    1.406347   -1.376690
H      1.642513   -2.468941   -1.106771
H      3.279152   -4.310412    0.406298
H      4.189352   -4.120422   -1.109240
H      4.990208   -3.849576    0.450872
H      5.410053   -1.264509    0.710365
H     -0.669750   -1.368056   -0.924720
H     -0.196445   -1.374874    0.780385
H     -2.372184    0.023564    1.200068
H     -2.649071   -2.316133    1.747285
H     -2.459964   -2.805097    0.050646
H     -4.745502   -1.195394    1.241186
H     -4.877646   -2.670537    0.265432
H     -5.047986   -0.190671   -0.893987
H     -4.191655   -1.504300   -1.730110
