58

C      5.793764   -1.176563   -0.396547
C      4.571326   -0.328996   -0.080977
C      3.521452   -1.130081    0.693131
C      2.268588   -0.301618    1.021056
N      1.471017    0.068741   -0.177914
C      0.766740    1.338226    0.100764
C      0.279140    2.128099   -1.125038
C     -0.601067    3.320245   -0.703501
N     -1.714918    2.902959    0.158633
C     -2.195204    4.013516    0.983889
C     -2.837163    2.301472   -0.592440
C     -3.553014    1.250302    0.285260
O     -4.620139    1.558481    0.831031
N     -2.967536   -0.019856    0.471591
C     -3.758172   -0.961486    1.266124
C     -2.996638   -2.097068    1.952201
C     -2.425523   -3.118564    0.974401
C     -1.051063   -2.760787    0.408561
C     -0.774436   -1.254941    0.190848
C     -1.984891   -0.571704   -0.473107
C      0.598592   -1.077495   -0.572760
S      0.410510   -1.202432   -2.408175
C      2.146904   -1.178613   -2.908061
H      5.523213   -2.039620   -1.013201
H      6.533571   -0.585464   -0.945285
H      6.264749   -1.543103    0.521082
H      4.881379    0.541053    0.509705
H      4.152804    0.052478   -1.016951
H      3.963679   -1.465777    1.639970
H      3.261212   -2.038911    0.140522
H      2.626013    0.594597    1.545182
H      1.649358   -0.840711    1.749156
H     -0.029004    1.179069    0.832977
H      1.467411    2.024796    0.597367
H     -0.267356    1.511963   -1.837075
H      1.150479    2.509307   -1.673069
H     -0.961843    3.860186   -1.587745
H      0.049917    4.016153   -0.157664
H     -2.574947    4.842354    0.375672
H     -2.990573    3.686934    1.662366
H     -1.387863    4.395355    1.618934
H     -2.540876    1.855451   -1.544426
H     -3.573609    3.064910   -0.878823
H     -4.282714   -0.404905    2.052240
H     -4.532964   -1.370021    0.604901
H     -2.218388   -1.704486    2.616129
H     -3.714119   -2.621664    2.596422
H     -3.132204   -3.281907    0.151311
H     -2.334925   -4.086753    1.483040
H     -0.287093   -3.147108    1.097002
H     -0.916881   -3.315583   -0.528410
H     -0.641169   -0.835301    1.195754
H     -1.636723    0.220227   -1.114434
H     -2.525504   -1.258509   -1.136887
H      1.168400   -1.989356   -0.363527
H      2.577055   -0.186363   -2.755516
H      2.721307   -1.929984   -2.360966
H      2.209939   -1.411143   -3.974722
