55

C      7.559689   -0.155571   -1.583923
C      6.591465    0.711661   -0.793767
C      5.511476   -0.085363   -0.058195
C      4.546671   -0.807963   -1.004686
C      3.412816   -1.530737   -0.269561
N      2.528900   -0.581860    0.410026
C      1.417495   -1.267167    1.096878
C      0.012307   -0.719034    0.755914
O      0.024071    0.710627    0.543984
C      0.195052    1.507968    1.716537
C     -0.890290    1.315877    2.784421
O     -2.203431    1.168609    2.242812
C     -2.704942    2.356575    1.644084
S     -0.666252   -1.658823   -0.648156
O     -0.938378   -3.018936   -0.214334
O      0.136525   -1.420791   -1.835985
C     -2.243247   -0.875679   -0.917284
C     -2.343480    0.177938   -1.832980
C     -3.580011    0.788710   -2.042210
C     -4.702530    0.344126   -1.343994
O     -5.876677    1.013258   -1.579367
C     -6.858026    0.713160   -0.580780
C     -6.913092   -0.782042   -0.312686
O     -5.671354   -1.243122    0.232080
C     -4.601205   -0.738811   -0.460871
C     -3.369657   -1.349379   -0.238475
H      8.349669    0.466385   -2.017576
H      8.034260   -0.902130   -0.940566
H      7.058644   -0.673134   -2.406568
H      6.121849    1.438459   -1.466351
H      7.162877    1.286145   -0.055017
H      4.953863    0.613765    0.575938
H      5.982687   -0.813599    0.613574
H      5.096640   -1.555301   -1.588161
H      4.125632   -0.093449   -1.723155
H      2.839475   -2.109133   -1.004688
H      3.839292   -2.236320    0.454749
H      2.148657    0.070772   -0.282160
H      1.587267   -1.094577    2.166778
H      1.449586   -2.355248    0.963495
H     -0.672544   -0.969871    1.573646
H      1.188695    1.345731    2.148405
H      0.173405    2.548469    1.373793
H     -0.684760    0.398233    3.345575
H     -0.869069    2.135593    3.511273
H     -2.138770    2.609778    0.743292
H     -2.678043    3.187511    2.354465
H     -3.744603    2.180432    1.355711
H     -1.468704    0.528111   -2.376508
H     -3.667587    1.616360   -2.741587
H     -6.612878    1.275277    0.328630
H     -7.825515    1.067628   -0.949907
H     -7.699360   -1.005808    0.414656
H     -7.123141   -1.348011   -1.228652
H     -3.301421   -2.185297    0.453039
