37

C     -3.836479    1.571114   -1.303473
C     -3.799425    1.694726    0.211403
C     -3.506858    0.373157    0.925239
C     -2.184849   -0.318319    0.552073
C     -0.960994    0.549032    0.884347
O      0.218057   -0.124200    0.403377
C      1.377603    0.530238    0.665665
O      1.484010    1.613453    1.212629
C      2.496949   -0.299333    0.184828
C      2.499484   -1.683106    0.402154
C      3.579043   -2.443348   -0.036431
C      4.618959   -1.791670   -0.677220
N      4.645642   -0.459993   -0.904827
C      3.586276    0.268646   -0.465479
O      3.565368    1.621264   -0.732495
C      4.781530    2.116215   -1.280645
O     -2.069482   -1.532934    1.321853
C     -2.689729   -2.650195    0.699320
H     -2.849878    1.329908   -1.709900
H     -4.540994    0.794548   -1.617531
H     -4.155340    2.518497   -1.749887
H     -4.774769    2.060939    0.554684
H     -3.069016    2.457888    0.500131
H     -4.340865   -0.313698    0.736412
H     -3.524756    0.546097    2.009517
H     -2.156823   -0.573277   -0.514336
H     -0.874041    0.680460    1.969570
H     -1.025217    1.523205    0.389970
H      1.670567   -2.164058    0.916347
H      3.609295   -3.516068    0.120780
H      5.485259   -2.339849   -1.037849
H      4.677773    3.199387   -1.397096
H      4.969699    1.692337   -2.273040
H      5.626286    1.933856   -0.607185
H     -2.211919   -2.864653   -0.261428
H     -3.760329   -2.481284    0.558140
H     -2.560036   -3.518983    1.350385
