34

C      2.590987    0.190612   -2.039092
C      3.696189    0.231364   -0.990967
C      3.323584    1.083592    0.233636
C      2.831838    0.326882    1.477878
Cl     4.120371   -0.709065    2.170347
C      1.581764   -0.470953    1.271846
C      0.287290   -0.140004    1.625019
N     -0.483423   -1.190401    1.208249
C     -1.920772   -1.323461    1.361974
C     -2.665566   -0.415945    0.411981
C     -3.375937    0.690743    0.895654
C     -4.058185    1.536951    0.015840
C     -4.038462    1.289797   -1.359580
Cl    -4.902880    2.380501   -2.384504
C     -3.333600    0.189093   -1.854861
Cl    -3.262197   -0.182452   -3.539617
C     -2.653366   -0.658589   -0.971652
C      0.344881   -2.116232    0.648226
N      1.590920   -1.706759    0.657032
H      1.665068   -0.228702   -1.639952
H      2.901872   -0.419129   -2.895340
H      2.374000    1.196936   -2.413212
H      3.972573   -0.788886   -0.706117
H      4.582414    0.672413   -1.466248
H      4.215912    1.654794    0.526635
H      2.572232    1.832581   -0.052941
H      2.632390    1.072084    2.257653
H     -0.128913    0.729581    2.112895
H     -2.156025   -1.095563    2.407774
H     -2.198762   -2.368205    1.182780
H     -3.401669    0.910537    1.961590
H     -4.600978    2.393692    0.409381
H     -2.102638   -1.508197   -1.369666
H     -0.000914   -3.059608    0.247926
