49

C     -4.063669   -3.984268   -0.732297
C     -4.227332   -2.834857    0.245200
C     -3.154218   -1.736520    0.169152
C     -3.239390   -0.811501   -1.051347
Br    -2.432903   -1.624881   -2.645077
N     -2.659795    0.520100   -0.929512
C     -1.498246    0.734266   -0.049576
C     -0.191262    0.079591   -0.532615
C      0.882289    0.106782    0.540286
O      0.635100    0.073196    1.741539
N      2.166542    0.090889    0.030934
C      3.320728   -0.048973    0.906548
C      3.585438   -1.522548    1.241297
C      4.675197   -1.939037    0.265442
C      5.573710   -0.716924    0.226009
C      4.601067    0.460373    0.225684
C     -1.294695    2.245597    0.114388
C     -1.038000    3.085399   -0.984219
C     -0.846391    4.456974   -0.804695
C     -0.905355    5.009112    0.472788
C     -1.155511    4.191484    1.572143
C     -1.349288    2.820443    1.395000
H     -3.039850   -4.368264   -0.730449
H     -4.331918   -3.686515   -1.747844
H     -4.731337   -4.807679   -0.455519
H     -5.223163   -2.393147    0.126328
H     -4.197537   -3.255791    1.258049
H     -3.315117   -1.130150    1.070249
H     -2.159101   -2.186750    0.265751
H     -4.288563   -0.681608   -1.337447
H     -2.471192    0.875829   -1.863047
H     -1.747959    0.345398    0.943282
H      0.179788    0.552003   -1.449970
H     -0.340366   -0.982977   -0.746567
H      2.288066   -0.101836   -0.955140
H      3.120808    0.513774    1.826181
H      3.969142   -1.600952    2.267025
H      2.698997   -2.162080    1.164011
H      4.249958   -2.133758   -0.725969
H      5.206878   -2.835953    0.592529
H      6.197721   -0.679098    1.128245
H      6.238138   -0.709978   -0.643795
H      4.410073    0.794866   -0.803298
H      5.029671    1.313067    0.768692
H     -0.988638    2.680078   -1.991315
H     -0.652399    5.095213   -1.662759
H     -0.756125    6.076016    0.612534
H     -1.197779    4.618233    2.570852
H     -1.532210    2.197362    2.268701
