54

C      6.285162    0.944017   -1.794614
C      5.456410    0.106670   -0.832575
C      3.964670    0.187425   -1.165332
C      3.081432   -0.576573   -0.164103
C      3.389849   -2.081026   -0.129995
C      2.216070   -2.910104    0.382618
O      1.382667   -2.134058    1.234988
C      0.684341   -1.114694    0.514347
N      0.014281   -0.237836    1.480395
C      0.783668    0.260496    2.624633
C      1.431137    1.623272    2.405666
C     -1.200465    0.390099    1.227038
O     -1.605485    1.353432    1.872494
N     -1.931185   -0.149145    0.195375
C     -3.200369    0.450729   -0.211759
C     -4.309826    0.170535    0.819699
C     -5.715419    0.106352    0.211983
C     -5.856773    0.992173   -1.020894
O     -5.592352    2.347573   -0.667985
C     -4.879292    0.583129   -2.126292
C     -3.592117   -0.061302   -1.599391
C      1.593910   -0.353571   -0.468779
H      7.347553    0.871399   -1.541656
H      6.156751    0.598960   -2.825488
H      5.996211    1.998734   -1.746236
H      5.802555   -0.931435   -0.882297
H      5.628947    0.459772    0.190691
H      3.660277    1.241972   -1.173681
H      3.794644   -0.196726   -2.179161
H      3.287437   -0.176959    0.836757
H      3.685383   -2.457841   -1.116561
H      4.253189   -2.242772    0.527933
H      1.621259   -3.306192   -0.449596
H      2.585076   -3.770558    0.950243
H     -0.072737   -1.630534   -0.082331
H      1.544238   -0.471117    2.913486
H      0.095197    0.341307    3.475286
H      0.688407    2.398052    2.195036
H      1.978854    1.923571    3.304725
H      2.136725    1.613479    1.572970
H     -1.938127   -1.157454    0.212727
H     -3.037695    1.534886   -0.271873
H     -4.282894    0.954684    1.587165
H     -4.121561   -0.770644    1.352221
H     -6.440461    0.402581    0.979372
H     -5.946686   -0.930839   -0.060830
H     -6.881214    0.953612   -1.406686
H     -6.185204    2.588580    0.064904
H     -5.364314   -0.135841   -2.797961
H     -4.618411    1.458657   -2.733710
H     -2.780265    0.109620   -2.317447
H     -3.728223   -1.150789   -1.558017
H      1.391771   -0.730791   -1.481269
H      1.343006    0.713034   -0.500288
