31

C      3.593108    1.291540   -0.176834
C      2.927036    0.055070    0.413990
C      2.217809   -0.790897   -0.644509
C      0.706005   -0.550070   -0.757901
C     -0.182313   -0.937581    0.467083
C     -0.850482   -2.299112    0.362360
C     -1.005432    0.285942    0.069375
C     -2.238244    0.693750    0.415160
Cl    -2.839175    2.222992   -0.166071
O     -2.978018   -0.121129    1.250658
C     -4.285507    0.325179    1.583130
C      0.115426    0.891478   -0.744047
N     -0.279170    1.230251   -2.104537
H      2.875221    1.941277   -0.683360
H      4.363103    1.008252   -0.902087
H      4.077055    1.872494    0.614736
H      3.717445   -0.552656    0.871648
H      2.252428    0.352033    1.222487
H      2.684169   -0.634450   -1.624952
H      2.370441   -1.850478   -0.402231
H      0.392243   -1.128058   -1.647341
H      0.319986   -0.836298    1.437441
H     -0.100341   -3.095568    0.408131
H     -1.405849   -2.413078   -0.574856
H     -1.547412   -2.456482    1.191763
H     -4.251232    1.267278    2.139808
H     -4.741261   -0.428549    2.232365
H     -4.910840    0.416893    0.689094
H      0.694371    1.663544   -0.232993
H     -0.830006    0.508560   -2.567986
H     -0.860563    2.067875   -2.139523
