38

C      4.929580    2.849820    0.107284
C      4.284838    1.552097    0.568758
C      2.894455    1.368893   -0.046464
C      2.213573    0.082978    0.437233
C      0.783136   -0.019818   -0.127668
N      0.156879   -1.307258    0.210882
C     -1.219840   -1.522312    0.087879
O     -1.675898   -2.617794   -0.226683
N     -1.982079   -0.414645    0.389177
C     -3.372233   -0.262648    0.208638
C     -4.147420   -1.121225   -0.578476
C     -5.520472   -0.901750   -0.727715
C     -6.119353    0.181556   -0.096488
F     -7.436798    0.375214   -0.254378
C     -5.358573    1.050133    0.679825
Cl    -6.089164    2.400882    1.459610
C     -3.986581    0.832712    0.830772
C      1.013998   -2.462010   -0.074014
C      2.426239   -2.269011    0.478470
O      3.001236   -1.041536    0.009283
H      5.920448    2.962005    0.558414
H      5.048030    2.863602   -0.980877
H      4.324132    3.714095    0.398456
H      4.208872    1.558143    1.662278
H      4.935268    0.714386    0.292897
H      2.996462    1.341103   -1.138781
H      2.268170    2.233324    0.205197
H      2.176739    0.082957    1.534757
H      0.182882    0.821033    0.228654
H      0.800272    0.032020   -1.223954
H     -1.538538    0.239937    1.014435
H     -3.707360   -1.969362   -1.096528
H     -6.121633   -1.571120   -1.335656
H     -3.406012    1.520937    1.438841
H      1.048407   -2.571302   -1.165088
H      0.572323   -3.372427    0.345547
H      2.423689   -2.264935    1.574939
H      3.072327   -3.088670    0.149139
