53

C     -1.573817    4.763888    1.176513
C     -1.851766    3.844014   -0.002153
C     -0.951972    2.607053   -0.031595
C     -1.171165    1.676200    1.167652
N     -0.504383    0.380772    1.004650
C     -1.330863   -0.830852    1.117669
C     -1.813214   -1.365108   -0.250151
C     -2.108216   -2.880639   -0.192803
C     -0.851176   -3.739305   -0.113183
C     -3.037662   -0.596923   -0.799848
C     -4.319963   -0.724724    0.012264
C      0.890798    0.369115    1.053768
O      1.552160    1.371598    1.301373
N      1.447686   -0.855136    0.793899
C      2.884754   -1.015089    0.697529
C      3.220466   -2.511297    0.732605
F      3.451922   -0.507617    1.834599
C      3.429040   -0.367165   -0.567904
C      3.169246   -0.874005   -1.848665
C      3.697352   -0.214919   -2.949213
N      4.447940    0.901960   -2.868321
C      4.671426    1.391740   -1.630562
C      4.193444    0.802160   -0.471968
H     -1.818754    4.281675    2.127461
H     -0.521456    5.063927    1.201051
H     -2.182884    5.670111    1.097606
H     -2.904598    3.538943    0.013089
H     -1.699134    4.408015   -0.930018
H      0.095703    2.924634   -0.083611
H     -1.146653    2.059272   -0.961175
H     -2.244659    1.510146    1.309104
H     -0.789186    2.137423    2.085749
H     -0.734302   -1.589066    1.634115
H     -2.164779   -0.629731    1.797812
H     -1.009419   -1.215781   -0.984081
H     -2.752847   -3.111633    0.663393
H     -2.655738   -3.179444   -1.095299
H     -1.119819   -4.799472   -0.164663
H     -0.174784   -3.522918   -0.946238
H     -0.307168   -3.583512    0.822051
H     -2.794545    0.464313   -0.902268
H     -3.243125   -0.952897   -1.817734
H     -5.124672   -0.167016   -0.478542
H     -4.206986   -0.315651    1.019468
H     -4.644821   -1.765846    0.093350
H      0.926957   -1.380194    0.116146
H      2.897944   -2.948846    1.684744
H      2.732693   -3.075337   -0.069432
H      4.302385   -2.669434    0.659321
H      2.566591   -1.761592   -2.003703
H      3.521887   -0.579133   -3.957590
H      5.260309    2.303574   -1.589775
H      4.393825    1.259750    0.493512
