56

C     -0.877065   -4.006530    1.770921
C     -0.651065   -2.635596    1.148225
C     -1.935139   -2.100425    0.507998
C     -1.852019   -0.675955   -0.123708
C     -0.781377   -0.653493   -1.294255
C      0.627761   -0.126304   -0.901745
S      1.795449   -0.686535   -2.209764
C      3.327263   -0.431995   -1.415815
C      4.577863   -0.372242   -2.000303
C      5.515947   -0.159658   -0.957178
C      6.910601   -0.004454   -0.872069
C      7.488128    0.196439    0.390306
C      6.700844    0.241977    1.544346
C      5.311826    0.088707    1.479030
C      4.768920   -0.109020    0.211922
O      3.448206   -0.280839   -0.063498
O      0.772097    1.317962   -0.748368
C     -0.046452    2.176136   -0.093532
O      0.278370    3.317819    0.200314
C     -1.410608    1.672483    0.105835
C     -2.333418    2.074398   -0.797059
N     -2.244928    3.222416   -1.587901
C     -3.489602    1.120610   -1.158510
O     -3.534812    1.096806   -2.607469
C     -4.851285    1.679585   -0.672814
O     -5.173186    2.877194   -1.395529
C     -3.274961   -0.353594   -0.707076
C     -1.508613    0.415218    0.913806
C     -2.457840    0.566731    2.106237
H      0.050906   -4.376725    2.217968
H     -1.637621   -3.960129    2.556961
H     -1.203721   -4.730686    1.017716
H      0.139795   -2.726773    0.397382
H     -0.294669   -1.955285    1.927610
H     -2.252604   -2.809810   -0.268880
H     -2.732415   -2.118006    1.262132
H     -0.710875   -1.676207   -1.689149
H     -1.148149   -0.045146   -2.130157
H      0.956948   -0.591014    0.030803
H      4.786546   -0.465546   -3.056470
H      7.531544   -0.036689   -1.762388
H      8.566217    0.320566    0.470656
H      7.174627    0.401972    2.510727
H      4.686413    0.125256    2.362492
H     -2.378048    2.976525   -2.574311
H     -1.362590    3.730697   -1.471241
H     -4.240937    1.730973   -2.850222
H     -5.655835    0.968046   -0.885786
H     -4.856632    1.904772    0.397137
H     -4.400870    3.474226   -1.283393
H     -3.477518   -1.036417   -1.543866
H     -4.025233   -0.600262    0.056118
H     -0.535234    0.201348    1.370009
H     -2.447687   -0.333466    2.728933
H     -2.140770    1.402087    2.741670
H     -3.492491    0.757851    1.815436
