54

C      5.389504   -0.277151    1.645592
C      5.694947    0.855286    0.677630
C      5.177398    0.604399   -0.740971
C      3.662641    0.405460   -0.867398
C      2.853960    1.608583   -0.378491
C      1.360673    1.563175   -0.742876
C      0.569512    0.441871   -0.039321
O      0.922838   -0.811091   -0.638276
C      0.167370   -1.828597   -0.129251
C      0.623066   -3.127892   -0.320139
C     -0.118679   -4.197471    0.185164
C     -1.316574   -3.975104    0.873629
O     -1.938022   -5.110212    1.316465
C     -3.156775   -4.940791    2.029838
C     -1.774790   -2.668314    1.046970
C     -1.034112   -1.599731    0.534770
O     -1.553685   -0.336613    0.714741
N     -0.875853    0.703451   -0.059246
C     -1.498996    0.763888   -1.386293
C     -2.999061    1.095920   -1.331777
C     -3.290742    2.450323   -0.678669
C     -4.785101    2.771786   -0.715506
C     -5.081980    4.115036   -0.068125
H      5.762200   -1.232564    1.263113
H      5.871690   -0.087044    2.609883
H      4.314687   -0.371342    1.826547
H      5.288681    1.793208    1.071784
H      6.782685    0.987047    0.628184
H      5.677762   -0.282553   -1.149485
H      5.479795    1.446990   -1.375259
H      3.431678    0.219566   -1.923520
H      3.373071   -0.496043   -0.318791
H      3.276193    2.520696   -0.818911
H      2.952406    1.710379    0.708443
H      1.275785    1.464723   -1.832172
H      0.932970    2.535291   -0.464795
H      0.899448    0.428272    1.010121
H      1.552496   -3.309376   -0.851741
H      0.239352   -5.214529    0.042697
H     -3.922315   -4.478219    1.398168
H     -3.000075   -4.365164    2.948087
H     -3.517005   -5.933479    2.316549
H     -2.702264   -2.448883    1.563722
H     -1.370810   -0.176863   -1.934749
H     -1.016493    1.544064   -1.985888
H     -3.383275    1.103505   -2.359671
H     -3.544422    0.303867   -0.804319
H     -2.733117    3.237123   -1.201110
H     -2.948193    2.447272    0.362720
H     -5.347212    1.988783   -0.193337
H     -5.137625    2.787454   -1.753364
H     -4.559021    4.924709   -0.587039
H     -4.771116    4.121968    0.981473
H     -6.155491    4.324931   -0.105801
