48

C     -4.923812    0.146733    3.342371
C     -3.403562    0.307677    3.299986
C     -2.831248    0.102628    1.894504
C     -3.209816    1.215983    0.927420
O     -3.518980    2.346617    1.293941
N     -3.191568    0.835853   -0.392075
C     -2.235248    1.312030   -1.104125
S     -0.864229    2.277651   -0.793509
C     -0.617276    1.795918   -2.543021
C      0.691328    1.030950   -2.798866
N      0.841443   -0.191292   -2.020872
C      1.994255   -0.669708   -1.623515
C      3.305141   -0.323237   -1.627612
C      3.742609   -1.472657   -0.740885
C      4.280761   -1.113680    0.656966
C      3.531463    0.022505    1.360286
C      4.050669    0.248122    2.771914
C      2.323055   -2.049370   -0.991748
C      1.512603   -2.396997    0.159187
N      0.861031   -2.723152    1.067390
C     -2.030409    1.136367   -2.599060
C     -2.235206   -0.267264   -3.151689
O     -1.615551   -1.248601   -2.320892
H     -5.222116   -0.862773    3.040459
H     -5.426588    0.865820    2.680779
H     -5.292241    0.309009    4.364881
H     -2.956163   -0.430605    3.980299
H     -3.130409    1.298914    3.680473
H     -3.172490   -0.857222    1.489937
H     -1.734456    0.075966    1.948598
H     -0.593222    2.689777   -3.185577
H      0.750263    0.772219   -3.865101
H      1.531245    1.713391   -2.601273
H     -0.002984   -0.787519   -2.023563
H      3.839196    0.554566   -1.981725
H      4.499052   -2.125076   -1.207306
H      5.335041   -0.824668    0.556472
H      4.268274   -2.013864    1.287105
H      2.460519   -0.193366    1.423777
H      3.632860    0.957020    0.796941
H      4.005320   -0.673172    3.358184
H      3.432997    0.997959    3.276840
H      5.086859    0.603231    2.769326
H      2.336129   -2.871217   -1.724444
H     -2.734685    1.793289   -3.147601
H     -1.813005   -0.355331   -4.157193
H     -3.303738   -0.506002   -3.218896
H     -2.253110   -1.461440   -1.607489
