37

C      3.999825   -1.717477    0.036609
C      2.875495   -1.200220    0.919839
C      1.887833   -0.342684    0.125557
C      0.756921    0.169186    1.025605
C     -0.290767    1.061210    0.327613
C     -1.019426    0.386939   -0.857723
C     -1.845489   -0.816093   -0.464650
C     -3.025511   -0.646840    0.277619
C     -3.789869   -1.752708    0.650855
C     -3.377441   -3.026270    0.280265
F     -4.110730   -4.088428    0.638726
C     -2.216107   -3.215054   -0.459079
C     -1.449909   -2.110399   -0.834078
N      0.312970    2.328713   -0.087625
C     -0.444984    3.469902   -0.235183
C      0.321034    4.650952   -0.767374
O     -1.642181    3.531459    0.023151
H      3.606973   -2.337271   -0.775721
H      4.693380   -2.327157    0.624110
H      4.564611   -0.889940   -0.404424
H      2.351429   -2.051691    1.369422
H      3.304079   -0.612291    1.739781
H      1.480176   -0.940902   -0.695388
H      2.424930    0.499878   -0.323578
H      1.199899    0.738046    1.854104
H      0.249602   -0.689182    1.483218
H     -1.040622    1.316397    1.088531
H     -1.696526    1.106883   -1.337290
H     -0.302840    0.118340   -1.643723
H     -3.355873    0.350725    0.564309
H     -4.702529   -1.627501    1.224328
H     -1.916708   -4.219544   -0.739907
H     -0.545127   -2.268099   -1.416241
H      1.226626    2.308310   -0.520691
H      0.081701    4.785718   -1.825315
H      1.400297    4.511785   -0.658713
H      0.034860    5.545310   -0.206938
