47

C      6.556415    0.339987   -0.189285
C      5.061574    0.502188   -0.421785
C      4.279513   -0.688386    0.134335
C      2.790840   -0.653569   -0.204249
S      1.887330    0.599704    0.709189
O      2.195787    1.897390    0.147133
O      2.054474    0.339530    2.123540
N      0.282486    0.238331    0.302514
C     -0.179457    0.597070   -1.059660
C     -1.128319    1.792352   -0.969365
C     -2.632147    1.464204   -0.955987
C     -3.420285    2.774832   -0.814576
C     -3.096415    0.496818    0.147390
C     -2.436186    0.473599    1.539730
C     -1.836462   -0.889908    1.147119
C     -0.321468   -0.982854    0.890833
N     -2.627328   -0.885001   -0.107705
C     -3.751060   -1.828691   -0.032959
C     -3.279174   -3.248863   -0.320575
H      6.780673    0.262018    0.879358
H      6.936336   -0.557824   -0.687196
H      7.097669    1.203665   -0.588131
H      4.874730    0.604139   -1.496902
H      4.736057    1.430542    0.057435
H      4.420068   -0.746639    1.220084
H      4.698474   -1.610146   -0.288522
H      2.350190   -1.617859    0.067605
H      2.633070   -0.478943   -1.272202
H      0.681668    0.891236   -1.671306
H     -0.616253   -0.255348   -1.588303
H     -0.946504    2.419760   -1.853035
H     -0.868635    2.418148   -0.105696
H     -2.899163    1.035412   -1.931833
H     -4.497660    2.593418   -0.894404
H     -3.143801    3.486555   -1.599546
H     -3.234934    3.245525    0.157233
H     -4.191756    0.570058    0.235884
H     -1.734488    1.278412    1.771405
H     -3.158500    0.410194    2.362599
H     -2.111406   -1.681250    1.859243
H     -0.100350   -1.846515    0.251764
H      0.149829   -1.186509    1.858736
H     -4.489266   -1.563498   -0.800189
H     -4.267963   -1.795573    0.934901
H     -4.133108   -3.934046   -0.322826
H     -2.795721   -3.312475   -1.301403
H     -2.569377   -3.601192    0.434583
