49

C      0.201320    4.075406    1.853192
C      0.780845    2.888993    1.098393
C      0.430876    2.948887   -0.388569
C      0.960268    1.751831   -1.186823
N      0.266594    0.488865   -0.895115
C      0.897415   -0.605039   -0.296136
O      0.405524   -1.737170   -0.280570
C      2.288484   -0.386557    0.335093
N      2.511776   -1.380281    1.400343
C      3.929367   -1.554334    1.686867
C      4.107714   -2.578819    2.796501
C     -1.057619    0.310752   -1.543290
C     -0.950785   -0.383402   -2.918055
C     -1.310329   -1.862278   -2.897108
C     -2.696542   -2.079607   -2.303744
C     -2.902805   -1.371596   -0.989588
C     -3.920149   -1.824257   -0.133122
C     -4.173183   -1.181005    1.077012
C     -3.420056   -0.070831    1.440841
C     -2.416072    0.396333    0.592715
C     -2.140744   -0.243623   -0.629411
H      0.470707    4.018609    2.912491
H     -0.890922    4.090067    1.780966
H      0.585501    5.019901    1.454946
H      1.869776    2.887731    1.221747
H      0.399953    1.964827    1.545411
H     -0.654593    3.037727   -0.507852
H      0.866398    3.861984   -0.813575
H      0.828452    1.950872   -2.257818
H      2.039236    1.655747   -1.042367
H      2.368227    0.603258    0.784250
H      3.021099   -0.493439   -0.472937
H      2.089487   -2.264003    1.095835
H      4.370652   -0.603108    2.005234
H      4.465383   -1.897120    0.794408
H      3.603870   -2.259754    3.715235
H      5.171011   -2.707913    3.022907
H      3.704597   -3.554629    2.504909
H     -1.407151    1.327442   -1.773697
H      0.046673   -0.246163   -3.352198
H     -1.650118    0.113195   -3.605476
H     -0.564534   -2.432335   -2.336710
H     -1.289052   -2.259088   -3.919154
H     -2.855397   -3.157434   -2.177443
H     -3.456225   -1.716612   -3.007418
H     -4.518794   -2.690237   -0.406764
H     -4.955311   -1.548796    1.735097
H     -3.610260    0.430887    2.385438
H     -1.840568    1.266119    0.895108
