40

C      3.352579    2.153334    0.274853
C      3.580043    0.699198    0.664184
C      3.254215   -0.288760   -0.461391
C      1.755237   -0.422622   -0.786317
C      1.026330   -1.619224   -0.125310
C      1.076498   -1.557785    1.400729
O      1.725367   -2.825294   -0.491889
C     -0.432499   -1.782927   -0.644546
C     -1.405361   -0.646375   -0.399154
C     -2.308985   -0.611534    0.685357
C     -2.401166   -1.707285    1.714424
C     -3.153933    0.507032    0.847588
C     -3.152867    1.565283   -0.067704
C     -4.036901    2.758193    0.125355
C     -2.274246    1.505276   -1.143283
F     -2.235984    2.506379   -2.034472
C     -1.420446    0.420493   -1.316590
H      3.920251    2.412572   -0.624444
H      2.295884    2.363251    0.087969
H      3.683137    2.813238    1.083527
H      3.002833    0.471771    1.565027
H      4.637487    0.579757    0.929727
H      3.775889    0.045846   -1.367500
H      3.682395   -1.266056   -0.212413
H      1.238836    0.511556   -0.550547
H      1.685248   -0.555861   -1.874634
H      0.650434   -0.627691    1.788144
H      0.536589   -2.404612    1.839010
H      2.103453   -1.652305    1.769555
H      1.788827   -2.853754   -1.462092
H     -0.396076   -1.966609   -1.729063
H     -0.844637   -2.723742   -0.260306
H     -2.356151   -2.697523    1.253884
H     -1.602377   -1.603714    2.452732
H     -3.356931   -1.664132    2.249100
H     -3.830469    0.547169    1.700687
H     -4.885497    2.520849    0.775562
H     -3.468943    3.576258    0.579071
H     -4.447208    3.095708   -0.832172
H     -0.760856    0.424644   -2.180282
