52

C     -2.254356    6.026463   -0.659565
C     -2.067871    5.189283   -1.915121
C     -1.022674    4.083363   -1.761708
C     -1.413283    3.019588   -0.731874
N     -0.456406    1.913330   -0.701760
C     -0.684574    0.805930   -1.628608
C     -1.613753   -0.172372   -1.053168
C     -2.363199   -0.976798   -0.568605
C     -3.241603   -1.937313    0.023977
C     -3.980826   -2.803510   -0.785248
C     -4.832772   -3.745429   -0.204415
C     -4.945230   -3.820173    1.185853
C     -4.208578   -2.953977    1.995950
C     -3.356057   -2.012676    1.415795
C      0.678629    2.050640    0.095379
O      0.955417    3.071583    0.719945
C      1.614847    0.914207    0.204809
C      2.904231    1.041956   -0.304571
C      3.799565   -0.030833   -0.207722
C      3.431899   -1.234957    0.412242
N      4.326800   -2.333595    0.508690
C      3.985832   -3.568515    1.146851
C      5.136923   -4.470718    0.789317
O      6.204839   -3.590918    0.452076
C      5.673490   -2.356700    0.167458
O      6.361510   -1.463556   -0.299434
C      2.132062   -1.326980    0.942279
C      1.229804   -0.260946    0.847440
H     -1.300313    6.436774   -0.315101
H     -2.692518    5.438918    0.152503
H     -2.929505    6.864026   -0.863021
H     -3.029866    4.754507   -2.210273
H     -1.755465    5.850987   -2.731956
H     -0.055232    4.525260   -1.493947
H     -0.879876    3.608621   -2.740214
H     -2.409876    2.616689   -0.946485
H     -1.455068    3.465457    0.268229
H     -1.086887    1.211327   -2.563679
H      0.262038    0.320765   -1.884817
H     -3.901843   -2.749315   -1.869395
H     -5.411472   -4.418186   -0.835780
H     -5.611107   -4.551679    1.637440
H     -4.300576   -3.008956    3.078873
H     -2.788829   -1.337837    2.054307
H      3.218538    1.969703   -0.777212
H      4.788096    0.114333   -0.634747
H      3.037654   -3.980683    0.788196
H      3.937513   -3.404113    2.229254
H      5.428612   -5.118305    1.620943
H      4.914890   -5.095036   -0.082459
H      1.787564   -2.221357    1.453067
H      0.238861   -0.348277    1.284808
