47

C      5.674160   -1.889384    0.430586
C      4.437798   -1.033747    0.199843
C      3.197248   -1.665299    0.832685
C      1.944204   -0.786843    0.730709
C      1.481728   -0.561797   -0.718319
C      0.075212    0.112857   -0.902518
C     -0.046484    0.395475   -2.417010
C      0.028181    1.428125   -0.073174
C     -1.210957    2.319128   -0.233013
C     -1.041901    3.628100    0.551023
C     -2.256558    4.541825    0.426599
O     -3.399061    3.959078    1.035903
N     -0.940406   -0.855319   -0.438539
C     -2.292555   -0.849422   -0.742494
O     -2.785665   -0.065318   -1.546236
C     -3.075725   -1.850288   -0.031574
C     -2.747415   -2.897096    0.816497
C     -3.961973   -3.523102    1.193650
C     -4.960673   -2.829954    0.556170
O     -4.439017   -1.822911   -0.185631
H      5.877624   -2.005257    1.499935
H      6.549379   -1.423173   -0.032664
H      5.548573   -2.885460   -0.005784
H      4.606454   -0.037036    0.623430
H      4.294459   -0.910816   -0.878947
H      3.394570   -1.855217    1.895200
H      3.000753   -2.640365    0.370361
H      2.150168    0.176194    1.211712
H      1.152243   -1.269677    1.312413
H      2.235408    0.058577   -1.220356
H      1.477133   -1.529484   -1.238893
H     -0.970660    0.908965   -2.690109
H      0.777369    1.029585   -2.764867
H     -0.016636   -0.537879   -2.991545
H      0.913768    2.026597   -0.326757
H      0.111387    1.184110    0.993738
H     -2.096231    1.793423    0.137395
H     -1.379832    2.561535   -1.286660
H     -0.157404    4.161771    0.184144
H     -0.871971    3.390881    1.608234
H     -2.491156    4.743198   -0.623229
H     -2.061744    5.499854    0.919089
H     -3.167892    3.738355    1.953305
H     -0.669966   -1.444772    0.332186
H     -1.754850   -3.190371    1.125567
H     -4.093434   -4.375897    1.844764
H     -6.037651   -2.921745    0.524563
