56

C      4.453089    2.165620   -1.413462
C      3.321509    2.572915   -0.482407
C      2.286154    1.468768   -0.259087
C      2.845147    0.257600    0.489693
N      1.829534   -0.764872    0.739804
C      1.013906   -0.602003    1.861055
O      1.079565    0.407913    2.570427
C      0.040618   -1.734960    2.228268
N     -1.185017   -1.839987    1.415654
C     -0.951217   -2.380830    0.077971
C     -0.484064   -1.324846   -0.876878
C     -1.039323   -0.099497   -0.894350
C     -2.111192    0.282869    0.110341
N     -3.460336    0.420929   -0.527383
C     -3.605585    1.562191   -1.436619
C     -3.924268   -0.788909   -1.218120
C     -1.703201    1.590117    0.840892
C     -2.512258    1.572078    2.127184
C     -2.308293    0.153362    2.636452
C     -2.169701   -0.729897    1.373069
C      0.675928   -1.628331   -1.754433
O      0.631884   -1.380062   -2.955516
N      1.765139   -2.215430   -1.110003
C      2.619077   -3.085156   -1.893339
C      2.140579   -2.019637    0.230084
O      2.812517   -2.831289    0.864631
H      5.097569    3.026039   -1.619528
H      4.063648    1.797851   -2.368227
H      5.077111    1.384324   -0.969517
H      3.737329    2.895460    0.479037
H      2.812470    3.442537   -0.915171
H      1.874931    1.151945   -1.224163
H      1.454100    1.897802    0.307286
H      3.661682   -0.189385   -0.089718
H      3.273998    0.574701    1.448125
H      0.577129   -2.690722    2.219041
H     -0.230417   -1.613721    3.283728
H     -1.883984   -2.811739   -0.307956
H     -0.273941   -3.240772    0.128880
H     -0.695894    0.656161   -1.595216
H     -3.537983    2.515930   -0.907494
H     -2.872515    1.550521   -2.249431
H     -4.603462    1.568374   -1.891946
H     -4.965708   -0.663508   -1.538458
H     -3.927850   -1.667703   -0.568990
H     -3.329578   -1.017679   -2.109431
H     -1.859383    2.508717    0.271296
H     -0.637623    1.581481    1.087964
H     -2.159363    2.317315    2.846184
H     -3.572766    1.765536    1.930950
H     -3.142230   -0.171965    3.268016
H     -1.417722    0.142428    3.267462
H     -3.131254   -1.256804    1.321624
H      3.618667   -2.640938   -1.945331
H      2.234286   -3.235877   -2.905816
H      2.698556   -4.058037   -1.397126
