44

C     -6.024856   -0.679889   -1.286229
C     -4.825676   -0.566451   -2.216804
C     -3.489681   -0.430231   -1.471026
N     -3.429101    0.726311   -0.573666
C     -3.371715    2.000919   -1.283566
C     -2.411370    0.617883    0.483288
C     -0.937264    0.861368    0.125841
C     -0.303374   -0.148494   -0.828000
C      1.186462   -0.004680   -0.541690
N      1.254773    0.362064    0.862168
C      2.341881    0.226689    1.699515
O      2.278216    0.430823    2.911902
C      3.709323   -0.195650    1.108161
O      3.937079   -0.140443   -0.090110
N      4.568316   -0.606993    2.098595
C      5.856521   -1.043456    1.910288
N      6.599963   -1.398788    2.963837
O      7.825721   -1.786311    2.453300
C      7.807768   -1.661612    1.105196
C      6.582799   -1.193999    0.708296
C     -0.042676    0.732937    1.367365
O      0.055272    1.977232    2.022024
H     -6.168133    0.235533   -0.704279
H     -6.936231   -0.851271   -1.867642
H     -5.904820   -1.516090   -0.590657
H     -4.781334   -1.468761   -2.839204
H     -4.974271    0.273336   -2.904568
H     -3.349480   -1.352852   -0.893409
H     -2.684515   -0.397675   -2.212099
H     -2.511470    2.061435   -1.958579
H     -4.279636    2.164860   -1.872983
H     -3.315943    2.836700   -0.577098
H     -2.687674    1.340266    1.263896
H     -2.514569   -0.360197    0.972467
H     -0.824128    1.871665   -0.290335
H     -0.632655   -1.166962   -0.588560
H     -0.524727    0.051845   -1.879417
H      1.721853   -0.936797   -0.740888
H      1.627575    0.810188   -1.125703
H      4.253787   -0.555453    3.062372
H      8.718516   -1.936159    0.594076
H      6.266816   -0.990016   -0.303866
H     -0.387371   -0.034096    2.070608
H      0.720029    1.841275    2.723978
