33

C     -4.672179    1.403038   -0.043468
C     -3.441814    0.547394    0.220887
C     -2.155518    1.365076    0.072391
N     -0.946936    0.615338    0.412500
C     -0.515409   -0.376133   -0.599455
C      0.048515    0.284601   -1.859085
C      0.491676   -1.413233    0.007240
O     -0.057948   -1.931517    1.232786
C      1.916426   -0.948143    0.248879
C      2.208087    0.123237    1.106031
C      3.527699    0.522408    1.327557
C      4.574930   -0.147719    0.700360
C      4.303799   -1.218165   -0.148061
C      2.984304   -1.617544   -0.370962
H     -5.581295    0.803709    0.067408
H     -4.728470    2.238502    0.661627
H     -4.655325    1.810326   -1.059436
H     -3.507927    0.131999    1.233581
H     -3.449178   -0.296031   -0.477482
H     -2.206587    2.215831    0.762815
H     -2.087229    1.801250   -0.929563
H     -1.107037    0.092418    1.279585
H     -1.393890   -0.967535   -0.885153
H      0.446706   -0.470438   -2.545777
H     -0.724956    0.835956   -2.402755
H      0.855251    0.986929   -1.623921
H      0.520460   -2.267718   -0.681173
H      0.693082   -2.109708    1.825428
H      1.406403    0.662302    1.606393
H      3.735259    1.359589    1.989052
H      5.601311    0.165100    0.872463
H      5.120304   -1.742860   -0.637447
H      2.797486   -2.458259   -1.035928
