51

C      3.647556    1.394161   -2.176099
C      4.536786    1.238008   -0.950907
C      4.720883   -0.218006   -0.513993
N      3.567306   -0.781251    0.159762
C      2.538272   -1.440556   -0.525442
O      2.472090   -1.681406   -1.722433
C      1.536609   -1.887420    0.532785
C      0.071383   -1.702916    0.210264
C     -0.622184   -2.877021   -0.069319
N     -1.923976   -2.953445   -0.399284
C     -2.652177   -1.816486   -0.424210
S     -4.297846   -2.023193   -1.100183
C     -4.177452   -3.673496   -1.841470
C     -2.110055   -0.580096   -0.056484
C     -0.693204   -0.517868    0.142064
C     -0.043220    0.847949    0.165451
O      1.164670    1.014726    0.265155
N     -0.832723    1.969541    0.031685
C     -2.189204    1.839793    0.071888
C     -2.879931    0.653850    0.084723
C     -4.191534    1.051649    0.483826
C     -5.345725    0.253844    0.972333
N     -4.329408    2.389585    0.465524
N     -3.100803    2.846027    0.171255
C     -2.878957    4.269627    0.114275
C      2.096715   -1.242147    1.769578
C      3.270876   -0.652021    1.501456
C      4.145895    0.069137    2.464045
H      2.621194    1.079555   -1.973929
H      4.029725    0.805386   -3.016232
H      3.617488    2.443690   -2.486445
H      4.133085    1.841892   -0.131060
H      5.522847    1.650030   -1.196618
H      5.583187   -0.294020    0.158068
H      4.949897   -0.838801   -1.388624
H      1.729413   -2.962947    0.670900
H     -0.124731   -3.846359   -0.063919
H     -5.121937   -3.900626   -2.343984
H     -4.007945   -4.436026   -1.075918
H     -3.377120   -3.709429   -2.586164
H     -0.361661    2.863232    0.074521
H     -5.018130   -0.678408    1.441910
H     -6.040343    0.034444    0.156430
H     -5.902623    0.809482    1.736272
H     -3.711558    4.733799   -0.420934
H     -2.824231    4.648094    1.137850
H     -1.947796    4.475804   -0.417716
H      1.627053   -1.280383    2.741022
H      4.268457    1.116631    2.174335
H      5.133520   -0.399311    2.516066
H      3.721567    0.053703    3.473441
