66

C     -5.185811   -2.363984    1.608292
C     -3.921933   -3.178878    1.389378
C     -2.619552   -2.391449    1.588719
N     -2.307802   -1.410984    0.529445
C     -1.699301   -1.990280   -0.606823
O     -1.779445   -3.215592   -0.784821
C     -0.860719   -1.190881   -1.622220
C     -1.656952   -0.652657   -2.770937
C     -1.293380    0.085385   -3.830446
N     -0.105309    0.509110   -4.343731
C      1.006238    0.755872   -3.737169
C      1.439549    0.724752   -2.326235
C      1.243337    1.829722   -1.583325
N      1.495147    2.068395   -0.221004
C      0.334793    2.401404    0.665485
C     -0.642195    1.238062    0.536295
C     -1.854762    1.050296    1.416020
C     -2.774008    2.274348    1.443725
C     -3.663133    2.159762    0.202417
C     -3.583706    0.703301   -0.272639
C     -2.803395   -0.029899    0.819700
C      2.588264    1.378423    0.528044
C      3.572217    0.575425   -0.351317
C      4.813861    0.236576    0.468232
C      4.886678   -0.933407    1.239871
C      6.018151   -1.210198    2.009286
C      7.089081   -0.319246    2.021844
C      7.030817    0.848439    1.264065
C      5.900427    1.126353    0.492962
N      2.925242   -0.649036   -0.857918
C      2.009619   -0.519099   -1.744910
N      1.538439   -1.693135   -2.277060
C      0.277322   -2.015346   -2.204759
H     -5.170217   -1.861955    2.580588
H     -6.062976   -3.018759    1.581365
H     -5.315055   -1.612521    0.825793
H     -3.960773   -3.630193    0.392599
H     -3.927529   -4.006506    2.109322
H     -2.612841   -1.885255    2.561881
H     -1.791690   -3.111787    1.632086
H     -0.410270   -0.392690   -1.083566
H     -2.719217   -0.900262   -2.726765
H     -2.112835    0.335517   -4.510001
H      1.833140    1.049699   -4.409918
H      0.729182    2.683123   -2.027008
H     -0.120001    3.340555    0.331798
H      0.659487    2.536351    1.703107
H     -1.015011    1.313228   -0.488199
H     -0.058063    0.319441    0.663813
H     -1.534386    0.782833    2.429239
H     -3.408010    2.229008    2.338456
H     -2.238467    3.227160    1.480009
H     -4.693621    2.447420    0.436128
H     -3.308416    2.830838   -0.588151
H     -4.577944    0.273260   -0.427574
H     -3.078634    0.690037   -1.233348
H     -3.553319   -0.177864    1.610902
H      2.155435    0.707442    1.282383
H      3.129294    2.159519    1.077337
H      3.913223    1.179831   -1.203626
H      4.061853   -1.643825    1.233312
H      6.063658   -2.125643    2.593110
H      7.970765   -0.538172    2.617998
H      7.867557    1.541886    1.270773
H      5.873273    2.043073   -0.092071
H     -0.005371   -2.986341   -2.650237
