34

C      5.322343   -0.555200   -1.329423
C      4.279711   -0.332708   -0.243028
C      3.194736    0.631022   -0.714819
S      1.979917    0.990941    0.594602
C      1.027598   -0.562006    0.561810
C     -0.053292   -0.548176    1.637417
O      0.150226   -1.152491    2.695154
N     -1.263994    0.103199    1.384101
C     -2.177948    0.238197    2.517778
C     -1.451841    1.055354    0.282322
C     -2.831979    0.993747   -0.278223
N     -3.733446    1.957735   -0.270446
C     -4.804297    1.397397   -0.903046
N     -4.628412    0.139648   -1.309283
N     -3.369385   -0.101785   -0.901322
C     -2.776700   -1.396360   -1.114757
H      5.810388    0.385476   -1.603904
H      4.866495   -0.981865   -2.228634
H      6.093655   -1.247759   -0.978081
H      4.780050    0.064247    0.648435
H      3.849175   -1.302868    0.026999
H      2.673016    0.241279   -1.595285
H      3.649420    1.584812   -1.003568
H      1.693201   -1.402974    0.780497
H      0.589292   -0.744823   -0.422491
H     -3.215622    0.189188    2.178765
H     -1.991920    1.201466    3.002645
H     -2.031482   -0.557763    3.253235
H     -0.746203    0.881487   -0.531309
H     -1.248526    2.057335    0.677891
H     -5.736649    1.920831   -1.072163
H     -3.326984   -1.921393   -1.900118
H     -1.738263   -1.267202   -1.427305
H     -2.832279   -1.957987   -0.179385
