31

C     -3.214380   -1.693998   -0.364972
C     -1.930642   -1.437629    0.415748
N     -1.203323   -0.250208   -0.067522
C     -1.881363    0.987443    0.357937
C     -1.157464    2.254111   -0.077566
O      0.070543   -0.279022    0.664360
C      1.203488   -0.445996   -0.226177
C      1.153294   -1.778357   -0.970866
C      2.453180   -0.369396    0.654762
C      2.710314    1.117140    0.698754
C      2.358617    1.528556   -0.712629
O      1.344023    0.630460   -1.175429
H     -3.017492   -1.746727   -1.440969
H     -3.651731   -2.649960   -0.058120
H     -3.965035   -0.918541   -0.187138
H     -1.298158   -2.324197    0.293152
H     -2.154006   -1.361081    1.487408
H     -2.011111    1.009648    1.447480
H     -2.881030    1.025730   -0.088287
H     -0.966523    2.253089   -1.155430
H     -0.208804    2.374590    0.451665
H     -1.771732    3.131471    0.151134
H      1.056094   -2.619174   -0.276769
H      0.303827   -1.813882   -1.661503
H      2.050479   -1.922544   -1.582926
H      2.312884   -0.796245    1.652513
H      3.308830   -0.862938    0.177767
H      3.735207    1.377565    0.975691
H      2.031134    1.595425    1.413873
H      3.221574    1.425132   -1.379180
H      1.999306    2.559533   -0.773605
