44

C      0.205587   -2.600479    0.076431
C     -0.753219   -1.825900    0.977987
N     -0.295148   -0.459894    1.296667
C     -1.058665    0.099317    2.430134
C     -0.624347   -0.495337    3.768167
C     -0.257473    0.427024    0.116988
N      0.675035    1.499635    0.425982
S      1.819325    1.919742   -0.710718
O      1.162046    2.118682   -1.981477
O      2.656349    2.936241   -0.114270
C      2.810360    0.450438   -0.831817
C      3.629640    0.096746    0.244223
C      4.400259   -1.059245    0.154939
Cl     5.400125   -1.517898    1.477118
C      4.365893   -1.851350   -0.991879
C      3.554335   -1.475746   -2.061786
Cl     3.505853   -2.453181   -3.476200
C      2.775949   -0.323011   -1.994982
C     -1.585085    1.026098   -0.302271
C     -2.187832    2.206480    0.100861
C     -3.438633    2.436122   -0.539629
C     -3.756497    1.437058   -1.433170
C     -4.962454    1.318720   -2.300182
S     -2.541960    0.237227   -1.494932
H      0.200660   -2.230750   -0.952352
H      1.229827   -2.557583    0.460892
H     -0.091209   -3.654251    0.040126
H     -1.758647   -1.826161    0.543681
H     -0.824640   -2.414300    1.899002
H     -2.138637   -0.039446    2.295808
H     -0.883524    1.177987    2.518210
H     -0.895167   -1.550317    3.863300
H      0.457896   -0.400866    3.907389
H     -1.113878    0.041058    4.588106
H      0.140300   -0.127085   -0.736698
H      1.034603    1.453842    1.373159
H      3.668827    0.715193    1.138001
H      4.969492   -2.753247   -1.052735
H      2.148743   -0.036372   -2.836760
H     -1.742330    2.882056    0.821411
H     -4.065512    3.301500   -0.360516
H     -5.646652    2.157680   -2.135232
H     -4.681381    1.318986   -3.358481
H     -5.508211    0.394589   -2.083036
