53

C     -3.779168    2.093694    1.368848
C     -3.848671    1.576824   -0.057803
N     -3.202426    0.289195   -0.208472
C     -3.833530   -0.913185   -0.026172
N     -5.118997   -1.120122    0.324252
C     -5.418260   -2.439058    0.418520
C     -4.538073   -3.494082    0.192047
C     -3.217282   -3.214350   -0.166494
C     -2.858980   -1.867159   -0.277289
N     -1.668744   -1.272167   -0.601865
C     -1.889084    0.031478   -0.558749
C     -0.864961    1.102355   -0.846979
C     -0.889726    1.517935   -2.320437
C     -0.334811    0.446243   -3.260837
C      0.743732   -0.436726   -2.637191
N      1.416052    0.211161   -1.520701
C      2.787725   -0.006352   -1.373791
O      3.503623   -0.539777   -2.216505
C      3.432160    0.456283   -0.125912
C      3.957462    1.754011   -0.129987
C      4.561463    2.256028    1.016749
C      4.638019    1.464143    2.162242
C      4.121278    0.155924    2.177594
C      4.246356   -0.657984    3.438058
C      3.531176   -0.375230    1.008438
C      2.986080   -1.780141    0.994141
C      0.560557    0.688095   -0.423660
H     -4.275068    1.406874    2.062882
H     -2.741793    2.209216    1.699559
H     -4.271910    3.067925    1.443715
H     -3.378936    2.284059   -0.747608
H     -4.892291    1.471561   -0.374836
H     -6.449461   -2.645082    0.698582
H     -4.874950   -4.520354    0.293130
H     -2.494261   -3.998808   -0.352967
H     -1.127522    1.974891   -0.235210
H     -0.276210    2.422460   -2.430759
H     -1.900146    1.795953   -2.642981
H     -1.147342   -0.193634   -3.626151
H      0.071770    0.947432   -4.148267
H      1.459015   -0.730500   -3.413325
H      0.311801   -1.369412   -2.258005
H      3.896675    2.364206   -1.027584
H      4.975603    3.260803    1.020193
H      5.114605    1.874312    3.050963
H      3.283552   -1.104895    3.705638
H      4.992548   -1.447354    3.304414
H      4.558597   -0.038326    4.285545
H      2.833838   -2.162721   -0.018915
H      2.027427   -1.813600    1.521097
H      3.684759   -2.471343    1.476606
H      1.052318    1.568084    0.007100
H      0.544407   -0.078783    0.359138
