45

C      7.746598    0.213683   -1.497162
C      7.248119    0.818525   -0.197119
N      6.236104   -0.005254    0.436622
C      6.433183   -0.904621    1.441793
C      5.198474   -1.441213    1.715233
C      4.301830   -0.800335    0.822204
C      2.852201   -1.024440    0.708810
O      2.240073   -1.823078    1.411139
N      2.258144   -0.244618   -0.258940
C      0.863501   -0.357212   -0.627453
C     -0.060264    0.252243    0.421188
C     -1.511285    0.209633   -0.029096
O     -1.807462   -0.201303   -1.153430
N     -2.449344    0.672083    0.919025
C     -2.052938    1.479198    2.067536
N     -3.789153    0.800771    0.587981
C     -4.342676   -0.186542   -0.046142
C     -5.746464   -0.123265   -0.488755
C     -6.511073    1.034908   -0.312824
C     -7.839158    1.062653   -0.746404
C     -8.402434   -0.061869   -1.353449
C     -7.638535   -1.216499   -1.527722
C     -6.314908   -1.241399   -1.094820
F     -5.603833   -2.365258   -1.266698
N      4.952093    0.088554    0.039663
H      6.930924    0.099669   -2.218996
H      8.512137    0.854274   -1.945567
H      8.183838   -0.776258   -1.328971
H      8.074573    0.936952    0.512047
H      6.809314    1.807408   -0.369737
H      7.410076   -1.088479    1.866620
H      4.956608   -2.194416    2.452572
H      2.897004    0.335056   -0.798666
H      0.748706    0.149493   -1.591865
H      0.630210   -1.418317   -0.773739
H      0.034764   -0.300806    1.361455
H      0.227888    1.294715    0.596850
H     -1.291661    0.956009    2.651046
H     -1.648755    2.430828    1.710492
H     -2.917940    1.663059    2.712220
H     -3.805771   -1.128997   -0.255033
H     -6.077938    1.915489    0.155887
H     -8.433670    1.963503   -0.611689
H     -9.435945   -0.037347   -1.690890
H     -8.065156   -2.097182   -1.997901
