31

C     -3.761733   -0.583134    1.414897
C     -3.269531   -1.154571    0.094344
N     -2.407001   -0.214198   -0.615410
C     -2.803554    0.756198   -1.505592
S     -4.309558    1.126545   -2.086403
N     -1.650240    1.427155   -1.875650
N     -0.571898    0.910007   -1.224605
C     -1.067792   -0.041412   -0.479514
C     -0.217721   -0.930444    0.410340
N      0.878774   -0.202527    1.009226
C      0.711156    0.443359    2.224281
O     -0.297142    0.451023    2.914474
S      2.205461    1.276208    2.677776
C      2.996746    0.763550    1.179985
C      4.285161    1.059820    0.763710
C      4.714600    0.564110   -0.468096
C      3.854741   -0.210264   -1.259835
C      2.556492   -0.503517   -0.828469
C      2.136932   -0.013679    0.401002
H     -4.399474   -1.309139    1.928367
H     -2.925772   -0.335226    2.075918
H     -4.342503    0.331511    1.259064
H     -2.711909   -2.078811    0.275358
H     -4.126375   -1.407805   -0.537840
H     -1.578294    2.215328   -2.508043
H      0.159784   -1.769785   -0.181922
H     -0.829198   -1.352531    1.212564
H      4.945080    1.666434    1.375796
H      5.719720    0.785763   -0.820097
H      4.199258   -0.580502   -2.223226
H      1.905792   -1.089465   -1.467454
