42

C     -4.283153    1.305676    2.840966
C     -4.359573    0.822816    1.395613
N     -3.049044    0.515546    0.805970
C     -2.152785    1.676158    0.754155
C     -0.836510    1.314976    0.064594
C     -1.035258    0.837736   -1.386075
C     -0.137641   -0.372613   -1.697439
C      1.343428   -0.032200   -1.717143
O      1.779424    1.112959   -1.740769
N      2.146910   -1.152331   -1.747286
C      3.586735   -1.054690   -1.673826
C      4.065173   -1.226935   -0.257583
C      4.532342   -2.461244    0.202389
C      4.935812   -2.567573    1.524844
N      4.901428   -1.545840    2.406194
C      4.444724   -0.361549    1.943809
C      4.019810   -0.156039    0.641391
C     -2.511536    0.517719   -1.663019
C     -3.189549   -0.180664   -0.483238
H     -5.289534    1.362996    3.268979
H     -3.696343    0.615796    3.457030
H     -3.838615    2.303509    2.914911
H     -4.967773   -0.091012    1.401491
H     -4.896360    1.563197    0.789865
H     -2.624543    2.524829    0.241175
H     -1.908019    2.007029    1.770301
H     -0.172545    2.188796    0.071540
H     -0.327576    0.546487    0.661651
H     -0.752235    1.656120   -2.061501
H     -0.380723   -0.767807   -2.691635
H     -0.312212   -1.174503   -0.969784
H      1.730113   -2.050782   -1.545292
H      3.932738   -0.097459   -2.078919
H      3.995396   -1.844490   -2.312687
H      4.587721   -3.326114   -0.449562
H      5.304635   -3.508731    1.924155
H      4.424277    0.444924    2.671404
H      3.651418    0.819687    0.335726
H     -2.613292   -0.095317   -2.566892
H     -3.047104    1.453737   -1.875381
H     -2.757399   -1.181510   -0.365940
H     -4.242760   -0.341293   -0.746035
