55

C     -4.156541   -3.158848    0.358025
C     -3.013395   -2.192347    0.628941
N     -2.847432   -1.300075   -0.512346
C     -1.781660   -0.318514   -0.306045
C     -2.193524    0.941944    0.499982
C     -3.392289    1.735890    0.008247
C     -3.197975    2.741288   -0.956303
C     -4.270180    3.489346   -1.439917
C     -5.551807    3.250629   -0.957645
C     -5.761846    2.266125    0.010280
C     -4.692353    1.501855    0.495178
O     -4.818718    0.548747    1.473079
C     -6.122150    0.023401    1.688164
S     -1.141251    0.102326   -1.983272
C      0.451394   -0.774963   -1.944409
C      1.447896   -0.189425   -0.955101
O      1.153041    0.653099   -0.108472
C      2.857446   -0.694841   -0.993119
C      3.264886   -1.720824   -1.852100
C      4.590885   -2.155208   -1.839773
C      5.514527   -1.572661   -0.969213
C      5.135376   -0.544775   -0.091405
C      6.107740    0.065198    0.828579
C      6.263666    1.454201    0.930193
C      7.199357    1.996876    1.810256
C      7.962757    1.131009    2.573752
N      7.851805   -0.212088    2.515072
C      6.930724   -0.707021    1.651808
C      3.796008   -0.117504   -0.120193
H     -4.293007   -3.831256    1.211068
H     -5.098167   -2.623288    0.197656
H     -3.956333   -3.773072   -0.526437
H     -2.095890   -2.766706    0.802801
H     -3.234933   -1.629072    1.541198
H     -2.627799   -1.831578   -1.351061
H     -0.958938   -0.795893    0.236826
H     -2.368972    0.648236    1.543227
H     -1.335211    1.625531    0.563743
H     -2.200276    2.942754   -1.340378
H     -4.101252    4.256368   -2.190618
H     -6.389264    3.835413   -1.328212
H     -6.771671    2.128374    0.380189
H     -6.753857    0.750090    2.209176
H     -6.586540   -0.303640    0.752020
H     -6.026065   -0.854848    2.334329
H      0.272026   -1.828393   -1.709791
H      0.865997   -0.693587   -2.953506
H      2.579049   -2.204560   -2.541133
H      4.910626   -2.949401   -2.511427
H      6.545917   -1.923195   -0.991591
H      5.665087    2.124097    0.316909
H      7.329449    3.070208    1.894552
H      8.705011    1.505839    3.272731
H      6.865423   -1.793106    1.649315
H      3.473199    0.671843    0.559543
