43

C      7.366670   -0.141069   -1.430510
C      7.468855   -0.843724   -0.084972
N      6.395348   -1.814854    0.103794
C      5.106498   -1.320310    0.288695
C      4.797192   -0.386703    1.267249
C      3.481399    0.051621    1.408785
C      2.517560   -0.470977    0.563072
C      1.106513   -0.028450    0.681261
O      0.738010    0.803583    1.499536
O      0.335572   -0.691793   -0.254625
C     -1.011902   -0.333734   -0.215395
C     -1.499362    0.541450   -1.176491
C     -2.857388    0.868817   -1.174568
C     -3.748495    0.320199   -0.226953
C     -5.237883    0.708916   -0.256319
C     -5.852542    0.305717   -1.614037
C     -6.082688    0.031943    0.846664
C     -5.380186    2.234731   -0.067064
C     -3.218322   -0.579067    0.717234
C     -1.860008   -0.912070    0.721378
N      2.828848   -1.386610   -0.378105
N      4.132603   -1.815067   -0.503537
H      8.225267    0.521766   -1.576919
H      7.350324   -0.864905   -2.252158
H      6.457714    0.465248   -1.498763
H      8.418803   -1.389188   -0.048735
H      7.505382   -0.111860    0.729191
H      6.335606   -2.477153   -0.669970
H      5.562192   -0.011557    1.938030
H      3.220846    0.779402    2.170852
H     -0.835304    0.968563   -1.921249
H     -3.215168    1.563179   -1.931693
H     -6.922914    0.540292   -1.648615
H     -5.382942    0.829608   -2.453752
H     -5.740820   -0.770181   -1.793609
H     -7.132975    0.341649    0.785850
H     -6.064046   -1.060401    0.756155
H     -5.726150    0.298212    1.848540
H     -6.434686    2.534081   -0.048354
H     -4.901950    2.799377   -0.874863
H     -4.924451    2.559347    0.875920
H     -3.846158   -1.044231    1.471919
H     -1.474865   -1.613797    1.454679
