24

C      3.852048    0.757379   -0.630378
C      3.358824   -0.008990    0.583996
N      1.966502   -0.386417    0.451766
C      0.952937    0.500476    0.751473
O      1.141877    1.629362    1.188460
C     -0.433396    0.032917    0.479988
C     -0.787263   -1.332158    0.574618
C     -2.100839   -1.744331    0.321870
C     -3.024380   -0.775861   -0.014052
O     -4.341557   -0.981818   -0.282572
N     -4.839953    0.361618   -0.629688
O     -3.749711    1.333310   -0.423555
C     -2.684306    0.555142   -0.093711
C     -1.400797    0.994412    0.153691
H      3.733075    0.162459   -1.542054
H      3.292896    1.688898   -0.765766
H      4.911483    1.007408   -0.518968
H      3.933840   -0.932175    0.706350
H      3.484448    0.596978    1.487555
H      1.756065   -1.206523   -0.100131
H     -0.053718   -2.076716    0.873454
H     -2.387841   -2.787667    0.395549
H     -5.429939    0.563423    0.179341
H     -1.150295    2.048873    0.093693
