46

C     -2.120544    4.135838    1.095011
C     -2.702748    3.253769   -0.000319
N     -1.793478    3.014927   -1.121250
C     -0.568194    2.274725   -0.784735
C     -0.765140    0.831034   -0.250466
C     -1.502304   -0.063037   -1.275328
C     -2.032580   -1.345350   -0.669318
C     -1.272904   -2.521855   -0.703731
C     -1.759724   -3.695270   -0.125932
C     -3.009219   -3.703987    0.491201
C     -3.772182   -2.538591    0.533668
C     -3.285940   -1.363747   -0.041709
C      0.581519    0.236594    0.166150
C      0.764139   -0.195733    1.499237
C      1.971542   -0.758264    1.922603
C      2.999134   -0.874919    1.005377
C      4.354032   -1.476101    1.208937
C      5.107013   -0.933760   -0.014422
C      4.062527   -0.738610   -1.122861
C      2.833337   -0.455892   -0.317125
C      1.636609    0.090977   -0.751498
H     -2.894410    4.375536    1.831682
H     -1.744272    5.079377    0.686182
H     -1.304039    3.636731    1.625617
H     -3.591005    3.753764   -0.404274
H     -3.064542    2.311075    0.422678
H     -1.525831    3.913732   -1.524456
H      0.026077    2.233468   -1.706250
H      0.033979    2.858241   -0.077151
H     -1.382348    0.898008    0.654875
H     -0.857301   -0.302602   -2.130464
H     -2.358670    0.473487   -1.703225
H     -0.290936   -2.527647   -1.171670
H     -1.160352   -4.601133   -0.154832
H     -3.386839   -4.618292    0.940539
H     -4.746052   -2.543967    1.015503
H     -3.890174   -0.460380   -0.000216
H     -0.050958   -0.110684    2.215564
H      2.090514   -1.100020    2.945555
H      4.289457   -2.568683    1.181631
H      4.821700   -1.150278    2.142172
H      5.548496    0.040446    0.238490
H      5.927925   -1.588054   -0.323995
H      3.927847   -1.655375   -1.706000
H      4.331187    0.090842   -1.782887
H      1.525653    0.389661   -1.789474
