67

C     -0.306446   -4.479272    2.502069
C     -0.283607   -4.386738    0.985468
O      0.506899   -3.271300    0.577005
C     -0.233802   -2.047739    0.472936
C     -0.710251   -1.870065   -0.972384
C     -1.408193   -0.508462   -1.314109
N     -0.481343    0.653427   -1.074375
N     -1.052498    1.901898   -1.116148
C     -0.720136    2.679200   -0.123693
C     -1.240674    4.058842   -0.052376
C     -0.934213    4.850834    0.979909
C     -0.084845    4.376525    2.035403
C      0.406714    3.129663    1.976339
C      1.307199    2.523131    3.000844
O      0.088032    2.261768    0.904737
C      0.817076    0.519986   -1.789146
N      1.687968    1.686502   -1.657353
C      2.476910    1.004899   -0.919471
C      3.688750    1.175174   -0.193682
C      4.372722    2.327796   -0.146756
C      5.562403    2.131116    0.644883
C      5.600904    0.860415    1.075889
C      4.397702    0.105031    0.570936
O      3.632903   -0.315172    1.693494
C      3.432445   -1.720577    1.707322
O      1.823546   -0.152035   -1.029440
C     -2.630228   -0.318790   -0.347660
C     -3.810191   -1.278190   -0.531835
C     -4.564021   -1.176068   -1.863440
C     -4.382606    0.145166   -2.610006
C     -3.001315    0.358037   -3.246775
C     -1.886881   -0.594296   -2.800101
H     -0.802901   -3.604214    2.938145
H      0.713144   -4.503009    2.902663
H     -0.837787   -5.378586    2.828261
H     -1.299288   -4.327058    0.580449
H      0.187782   -5.285539    0.576956
H     -1.066120   -2.049471    1.182510
H      0.440471   -1.240458    0.767153
H      0.137057   -2.045199   -1.648725
H     -1.395856   -2.697406   -1.200081
H     -1.873913    4.384491   -0.867431
H     -1.314766    5.865801    1.038421
H      0.147224    5.047484    2.856001
H      1.529029    3.219146    3.815916
H      0.838071    1.634357    3.433910
H      2.255334    2.223593    2.545771
H      0.780819    0.170776   -2.825401
H      4.094251    3.259400   -0.616982
H      6.283243    2.906393    0.858313
H      6.366172    0.430972    1.704995
H      4.706450   -0.721925   -0.080353
H      4.385381   -2.235683    1.849209
H      2.959778   -2.055563    0.778481
H      2.775296   -1.966862    2.544724
H     -2.295694   -0.389936    0.695245
H     -3.029312    0.701700   -0.412612
H     -3.500822   -2.317314   -0.368426
H     -4.527587   -1.061638    0.271864
H     -5.633655   -1.322546   -1.661030
H     -4.287795   -2.016396   -2.514276
H     -4.613393    0.983570   -1.940138
H     -5.135394    0.201643   -3.406772
H     -3.117963    0.222038   -4.331545
H     -2.694699    1.404094   -3.128185
H     -2.201325   -1.621833   -3.025739
H     -1.042157   -0.445526   -3.479775
