61

C      5.206074    0.196124    2.713846
C      4.929582   -1.079914    1.934204
O      4.242328   -0.773323    0.708323
C      5.021063   -0.436752   -0.352270
O      6.244453   -0.384733   -0.340995
C      4.186914   -0.167433   -1.588994
C      2.997256    0.755299   -1.298469
C      1.693943   -0.027358   -1.118893
N      1.382603   -0.824368   -2.317034
C      0.098559   -1.194337   -2.688166
C     -1.118742   -1.128675   -2.134058
C     -1.521460   -0.653031   -0.782631
N     -0.839204   -0.842481    0.287886
C     -1.430870   -0.469690    1.580058
C     -1.298455    1.031547    1.902115
C     -2.491977    1.957803    1.593850
N     -2.322788    2.916508    0.482204
C     -3.467262    3.829544    0.427345
C     -2.007774    2.360675   -0.840790
C     -2.976252    1.346392   -1.463330
C     -2.870582    0.028027   -0.753354
N     -3.884799   -0.447962   -0.101390
N     -3.584545   -1.449460    0.773826
C     -4.603214   -2.338303    1.061082
C     -4.835888   -2.869178    2.260006
C     -3.927746   -2.367342    3.303382
N     -2.948440   -1.538223    3.145136
N     -2.741877   -1.064378    1.868652
C      2.538483   -1.284494   -3.110321
C      3.760375   -1.490975   -2.226222
H      4.279622    0.758119    2.878672
H      5.881182    0.857028    2.160078
H      5.657953   -0.033546    3.686015
H      4.270017   -1.733807    2.516236
H      5.851645   -1.641085    1.739909
H      4.841798    0.369535   -2.288613
H      2.870134    1.443046   -2.145500
H      3.183013    1.383071   -0.418794
H      1.758281   -0.684813   -0.244154
H      0.905299    0.710372   -0.942293
H      0.119239   -1.629106   -3.690154
H     -1.959612   -1.480354   -2.732802
H     -0.756152   -0.963504    2.294367
H     -0.370982    1.433582    1.478041
H     -1.153026    1.093467    2.990336
H     -2.616173    2.572936    2.499306
H     -3.435995    1.411527    1.512850
H     -4.409941    3.306722    0.227805
H     -3.325310    4.591151   -0.347313
H     -3.566596    4.369839    1.376435
H     -1.916068    3.203135   -1.542478
H     -0.994369    1.945643   -0.798765
H     -4.011553    1.704991   -1.437691
H     -2.717909    1.194556   -2.517180
H     -5.237163   -2.553013    0.207914
H     -5.639577   -3.550588    2.498404
H     -4.122316   -2.756166    4.318025
H      2.306252   -2.230387   -3.615583
H      2.751090   -0.541379   -3.882996
H      4.591244   -1.899249   -2.817063
H      3.536216   -2.241235   -1.455553
