51

C     -1.168665    3.208516    0.214798
C     -2.143692    2.235796   -0.421816
O     -1.392051    1.353202   -1.264626
C     -2.176073    0.286276   -1.640376
C     -2.813548    0.350969   -2.880205
C     -3.599685   -0.717245   -3.306062
C     -3.730672   -1.849142   -2.501881
C     -3.072227   -1.918845   -1.269976
C     -2.281140   -0.854068   -0.815602
N     -1.574918   -0.921265    0.411677
C     -0.132123   -1.147788    0.197866
C      0.609847   -0.775680    1.478453
C      2.117352   -0.768221    1.187051
O      2.860112   -1.668894    1.565340
N      2.510963    0.353172    0.458643
C      3.809797    0.674652    0.009873
C      4.940310   -0.106408    0.257238
C      6.194774    0.282638   -0.224079
C      6.331294    1.457869   -0.959632
C      5.209356    2.248115   -1.214948
C      5.338979    3.457493   -1.972976
N      5.435361    4.437439   -2.586637
C      3.953968    1.856344   -0.730156
O      0.273389   -1.695559    2.518614
C     -1.091094   -1.837480    2.653096
C     -1.516220   -2.390508    3.862921
C     -2.876616   -2.532810    4.122249
C     -3.808077   -2.115492    3.175132
C     -3.380547   -1.577955    1.956262
C     -2.015484   -1.461753    1.651460
H     -0.612882    3.758866   -0.552516
H     -1.692764    3.923499    0.855098
H     -0.429640    2.670336    0.817739
H     -2.871876    2.787030   -1.027912
H     -2.674888    1.692009    0.368882
H     -2.698020    1.229208   -3.508273
H     -4.103761   -0.672166   -4.267975
H     -4.335701   -2.687756   -2.838369
H     -3.161491   -2.825415   -0.675917
H      0.040390   -2.204534   -0.053753
H      0.245194   -0.555835   -0.644041
H      0.341423    0.234776    1.820450
H      1.787004    1.023003    0.220371
H      4.885961   -1.029585    0.826854
H      7.064457   -0.338490   -0.020566
H      7.312881    1.748577   -1.328936
H      3.088817    2.482659   -0.940112
H     -0.784162   -2.694583    4.606138
H     -3.209092   -2.954827    5.067041
H     -4.871498   -2.205577    3.382546
H     -4.133024   -1.244568    1.246588
