57

C     -4.484234   -3.846931   -0.439978
C     -4.338576   -2.521460   -1.165977
O     -3.644279   -1.577857   -0.335300
C     -2.289761   -1.612754   -0.404288
O     -1.605161   -2.377453   -1.068871
C     -1.717067   -0.573588    0.466911
C     -0.870092   -0.959324    1.425165
N     -0.287868   -0.106481    2.348127
C      0.233821   -0.606816    3.647195
C      1.764159   -0.564970    3.703279
O      2.368478   -0.175998    4.703659
N      2.390842   -1.012836    2.564039
C      3.829758   -1.070707    2.448744
C      4.262035   -0.599284    1.097706
N      5.425739   -0.821165    0.523398
C      5.370338   -0.204745   -0.703424
C      6.327081   -0.144434   -1.728675
C      6.005573    0.549434   -2.902255
C      4.762113    1.170873   -3.051173
C      3.802269    1.132754   -2.032783
C      4.146285    0.431011   -0.877557
N      3.470317    0.189937    0.292850
C     -0.664928    1.320919    2.341022
C      0.581138    2.192480    2.127830
N     -1.631345    1.744842    1.322916
C     -2.053430    0.872185    0.470477
C     -2.957880    1.359030   -0.605556
C     -4.093857    2.090390   -0.244339
C     -4.946506    2.580109   -1.232346
C     -4.657009    2.355178   -2.579853
C     -3.513743    1.642345   -2.942020
C     -2.655177    1.147673   -1.957309
H     -5.032485   -4.563368   -1.048563
H     -5.014729   -3.709336    0.505475
H     -3.510041   -4.278972   -0.191777
H     -3.835788   -2.649621   -2.133161
H     -5.330529   -2.096697   -1.370667
H     -0.609953   -2.010465    1.547617
H     -0.141283    0.013997    4.474954
H     -0.092442   -1.640382    3.832843
H      1.808569   -1.402989    1.833208
H      4.310219   -0.470758    3.228973
H      4.121743   -2.115305    2.587814
H      7.289767   -0.634051   -1.602003
H      6.730322    0.596621   -3.708169
H      4.534871    1.698496   -3.974614
H      2.837860    1.616933   -2.150140
H      2.545299    0.525879    0.537303
H     -1.098700    1.581608    3.318090
H      0.320720    3.255553    2.208400
H      1.362244    1.986253    2.865462
H      1.004127    2.035290    1.125214
H     -4.319697    2.275380    0.808394
H     -5.837029    3.136486   -0.952310
H     -5.325230    2.745019   -3.343990
H     -3.290787    1.480963   -3.988478
H     -1.756082    0.621113   -2.251446
