67

C      8.857552    0.742946    0.179747
C      8.079755    0.404913    1.439120
O      6.675731    0.336291    1.151034
C      6.217479   -0.861665    0.694591
O      6.928285   -1.846494    0.528607
N      4.855709   -0.841361    0.438751
C      4.094728    0.414565    0.396127
C      2.592058    0.200634    0.655196
N      2.071146   -0.886043   -0.180513
C      1.392071   -0.685424   -1.379607
O      1.390942   -1.538861   -2.272932
C      0.632788    0.642809   -1.551472
N     -0.478547    0.495049   -2.495323
C     -1.760484    0.113124   -2.142294
C     -2.683855   -0.421418   -2.958383
C     -3.869423   -0.763858   -2.220184
C     -3.709957   -0.450751   -0.921915
C     -4.658465   -0.802326    0.188892
O     -5.055449    0.374712    0.898153
C     -6.034924    1.143854    0.212848
C     -4.042644   -1.790365    1.216486
C     -3.576149   -3.097677    0.567349
C     -5.046474   -2.111050    2.332795
C     -2.351257    0.201771   -0.721169
C     -2.411549    1.615254   -0.155363
C     -2.165797    1.823271    1.213115
C     -2.225878    3.104927    1.764678
C     -2.534585    4.197819    0.958509
C     -2.789290    4.010303   -0.397681
C     -2.732918    2.728869   -0.949932
C      2.785529   -2.151409    0.010356
C      4.279420   -1.979120   -0.289476
H      9.920851    0.870797    0.401864
H      8.477750    1.665131   -0.273186
H      8.751943   -0.047386   -0.571305
H      8.214532    1.201803    2.178714
H      8.438934   -0.523241    1.897385
H      4.247490    0.840825   -0.603157
H      4.486437    1.128995    1.126789
H      2.432416   -0.092658    1.699926
H      2.060469    1.138911    0.486916
H      0.270021    1.006998   -0.588918
H      1.339624    1.375671   -1.955621
H     -0.173569    0.042118   -3.358526
H     -2.558695   -0.620089   -4.011844
H     -4.715740   -1.272553   -2.656812
H     -5.557576   -1.277709   -0.228715
H     -5.664518    1.492406   -0.755583
H     -6.270613    2.018466    0.826117
H     -6.950252    0.559652    0.075966
H     -3.178895   -1.316314    1.700251
H     -2.771051   -2.923714   -0.153499
H     -4.399853   -3.597271    0.045484
H     -3.187447   -3.789653    1.323053
H     -5.328318   -1.209216    2.886864
H     -5.959163   -2.559964    1.925596
H     -4.614826   -2.815178    3.053267
H     -1.736432   -0.432958   -0.068565
H     -1.945700    0.980402    1.864599
H     -2.044072    3.247024    2.826470
H     -2.585700    5.193914    1.389086
H     -3.037303    4.859561   -1.028904
H     -2.940297    2.605171   -2.010786
H      2.643886   -2.444664    1.057758
H      2.361306   -2.944694   -0.613791
H      4.815272   -2.900976   -0.039142
H      4.433540   -1.782893   -1.358049
