48

C      0.998761    3.353965   -1.610308
C     -0.330698    2.630908   -1.539011
O     -0.225533    1.592426   -0.556104
C     -1.342510    0.805176   -0.464276
O     -2.345957    0.974198   -1.148141
C     -1.227032   -0.256693    0.534681
C     -0.147331   -0.472938    1.399129
N      1.024896    0.268504    1.472389
C      2.120078    0.041728    2.292055
O      2.271846   -0.863417    3.106825
C      3.203661    1.098080    2.122108
C      3.834164    1.143366    0.749152
C      4.173551    2.378931    0.178943
C      4.787983    2.438356   -1.073227
C      5.077934    1.264543   -1.764759
C      4.765504    0.030341   -1.199524
C      4.156054   -0.031759    0.054708
S     -0.404166   -1.805476    2.455315
C     -1.896620   -2.101483    1.785312
C     -2.230341   -1.243571    0.777827
C     -3.582642   -1.570517    0.217905
C     -3.487772   -2.261035   -1.149919
C     -4.847908   -2.440753   -1.809180
C     -4.154014   -2.523519    1.333469
C     -2.925900   -3.120146    2.087910
H      1.276972    3.751179   -0.628725
H      1.790380    2.662628   -1.914817
H      0.957531    4.177996   -2.327956
H     -0.565536    2.199479   -2.518715
H     -1.118512    3.332951   -1.244368
H      1.098070    1.026090    0.798368
H      3.992704    0.911593    2.860688
H      2.753839    2.067472    2.371624
H      3.968039    3.307100    0.708149
H      5.046055    3.401031   -1.507047
H      5.559014    1.310161   -2.738321
H      5.006329   -0.887554   -1.730245
H      3.942082   -1.009205    0.485454
H     -4.202581   -0.669113    0.150495
H     -2.858077   -1.666892   -1.823388
H     -2.998982   -3.238837   -1.055114
H     -4.728402   -2.893539   -2.798731
H     -5.350132   -1.476639   -1.938041
H     -5.500062   -3.092448   -1.221114
H     -4.735617   -1.917496    2.042039
H     -4.818269   -3.305817    0.955965
H     -2.649282   -4.091031    1.664342
H     -3.131572   -3.228321    3.156177
