60

C      1.336870    5.251476    2.254863
C      0.741317    5.492673    0.878218
O      0.879784    4.323948    0.059825
C     -0.219710    3.487821    0.135216
C     -1.345610    3.743137   -0.549673
C     -2.521229    2.903287   -0.503387
C     -2.574897    1.553386   -0.473713
N     -3.816456    0.914644   -0.479788
C     -3.966310   -0.398798   -1.112583
C     -5.293732   -1.008098   -0.667351
C     -2.714704   -1.268496   -0.819606
C     -2.694742   -2.500330   -1.742150
C     -2.612681   -1.761322    0.635991
O     -1.528306   -0.519824   -1.181314
C     -1.373265    0.682032   -0.490282
C     -0.180161    0.961764    0.100930
N      0.979424    0.172546    0.061453
C      1.267422   -0.993939   -0.775226
C      1.430087   -0.592959   -2.252098
C      1.534777   -1.777667   -3.110084
N      1.616559   -2.706904   -3.800467
C      2.490264   -1.679770   -0.159970
C      3.816792   -1.259149   -0.432146
C      4.914682   -1.879777    0.176135
C      4.663216   -2.906047    1.060399
O      5.601641   -3.609346    1.749086
C      4.763333   -4.517828    2.497892
O      3.352032   -4.333466    2.253658
C      3.383828   -3.317794    1.346203
C      2.283914   -2.726265    0.761817
C     -0.038482    2.232902    0.945221
H      2.367226    4.888328    2.171524
H      1.331491    6.172703    2.846416
H      0.768995    4.489189    2.798538
H      1.301963    6.294138    0.383231
H     -0.300563    5.829875    0.954579
H     -1.422722    4.651267   -1.141412
H     -3.452696    3.464574   -0.530142
H     -4.589447    1.546930   -0.669506
H     -4.018348   -0.218554   -2.195461
H     -5.463227   -1.986263   -1.126927
H     -5.343758   -1.121673    0.421094
H     -6.127595   -0.357955   -0.959229
H     -3.523733   -3.185762   -1.538387
H     -2.741371   -2.200663   -2.796288
H     -1.756618   -3.056731   -1.624813
H     -1.645224   -2.245235    0.814059
H     -2.684180   -0.937096    1.353312
H     -3.401558   -2.481928    0.875963
H      1.812158    0.654680    0.394406
H      0.443660   -1.713308   -0.697084
H      2.296791    0.059133   -2.401287
H      0.570057   -0.005847   -2.588309
H      4.014799   -0.435605   -1.112237
H      5.932281   -1.557135   -0.031803
H      4.954214   -4.369016    3.567897
H      5.034485   -5.547232    2.232088
H      1.283295   -3.061355    1.024838
H      0.943358    2.257936    1.434835
H     -0.759390    2.210772    1.773036
