38

C      5.290172    0.633192    2.908422
C      4.490176   -0.654915    2.961657
O      3.330608   -0.552796    2.123604
C      3.512490   -0.885740    0.823020
O      4.567228   -1.241986    0.320700
N      2.330735   -0.742335    0.161297
C      2.252896   -0.749736   -1.283381
C      0.902672   -1.239896   -1.792994
C     -0.226742   -0.270312   -1.488975
O     -0.036263    0.768451   -0.853611
N     -1.493536   -0.607985   -1.961050
C     -1.831571   -1.940790   -2.443830
C     -2.603699    0.246151   -1.522614
C     -3.132777   -0.103215   -0.118791
O     -2.998677   -1.244722    0.330562
C     -3.846250    0.956505    0.593995
C     -4.154890    2.251218    0.205176
C     -4.873411    2.969894    1.210297
C     -5.083573    2.192586    2.317520
Cl    -5.903356    2.655929    3.752785
S     -4.444422    0.636354    2.177857
H      4.662843    1.486991    3.184875
H      5.660267    0.824571    1.896254
H      6.144462    0.587550    3.589715
H      4.132660   -0.823260    3.982840
H      5.105012   -1.520845    2.690216
H      1.631042   -0.217949    0.674793
H      2.462050    0.270083   -1.625764
H      3.044662   -1.396513   -1.677791
H      0.668194   -2.210923   -1.343049
H      0.967456   -1.353214   -2.880812
H     -2.759371   -1.900533   -3.021308
H     -1.042705   -2.329179   -3.091823
H     -1.949534   -2.615536   -1.592026
H     -3.425163    0.158078   -2.241870
H     -2.254845    1.283543   -1.536016
H     -3.884616    2.686153   -0.749710
H     -5.210225    3.995132    1.118424
