52

C      8.258783    2.255904   -1.394139
C      7.113869    1.322255   -1.746292
O      6.587774    0.792366   -0.531198
C      5.477129   -0.001695   -0.621593
C      4.939912   -0.508841   -1.807190
C      3.799566   -1.323118   -1.773172
C      3.181299   -1.646612   -0.555170
C      1.938710   -2.498759   -0.520057
N      0.750267   -1.703817   -0.725225
C      0.111079   -1.109063    0.333798
O      0.417646   -1.267720    1.508168
N     -0.911107   -0.307499   -0.108632
C     -1.776551    0.357914    0.844622
C     -2.414150    1.640811    0.239755
C     -3.677067    1.165064   -0.493030
C     -4.829728    2.149116   -0.643733
C     -6.077948    1.377838   -1.112869
C     -6.524703    0.288605   -0.115832
C     -5.383316   -0.440145    0.542292
C     -5.563833   -1.525254    1.403074
C     -4.468296   -2.080160    2.096405
C     -3.181788   -1.541191    1.967218
C     -3.009232   -0.460205    1.122573
C     -4.092352    0.040010    0.399579
C      3.718754   -1.130270    0.630664
C      4.855174   -0.325149    0.590892
F      5.342797    0.149618    1.747055
H      7.911111    3.061507   -0.734923
H      9.046051    1.716963   -0.854306
H      8.689751    2.698878   -2.297671
H      6.340448    1.889090   -2.280126
H      7.495074    0.513596   -2.381336
H      5.383555   -0.292025   -2.773387
H      3.398278   -1.701045   -2.706166
H      1.975692   -3.240923   -1.325063
H      1.869665   -3.050166    0.424508
H      0.688921   -1.199851   -1.597772
H     -1.372223   -0.667558   -0.928250
H     -1.231788    0.600986    1.763423
H     -1.732393    2.182146   -0.423518
H     -2.691500    2.322011    1.055178
H     -3.404138    0.753053   -1.473608
H     -5.049372    2.653210    0.307019
H     -4.568413    2.924271   -1.373111
H     -5.856566    0.906398   -2.078864
H     -6.905460    2.072702   -1.287985
H     -7.115120    0.767634    0.675785
H     -7.178257   -0.424603   -0.631085
H     -6.556802   -1.939189    1.562409
H     -4.629948   -2.924764    2.765293
H     -2.345541   -1.951039    2.528565
H      3.256289   -1.341282    1.591529
