29

C     -4.162076    1.425592    1.434131
C     -3.918689   -0.068116    1.329077
O     -3.266174   -0.376799    0.089542
C     -1.905364   -0.292980    0.086970
O     -1.230387    0.027891    1.062511
C     -1.336496   -0.624317   -1.210686
C      0.015028   -0.630690   -1.542287
N      0.993932   -0.300299   -0.601939
C      2.358168   -0.273803   -0.818841
O      2.902285   -0.543380   -1.885399
C      3.173586    0.111783    0.347727
C      2.719429    0.451410    1.612229
S      3.982689    0.841663    2.703827
C      5.171043    0.566941    1.512298
C      4.613712    0.186992    0.312826
C      0.213679   -1.004607   -2.906750
C     -0.967060   -1.267199   -3.563519
S     -2.318105   -1.066066   -2.546075
H     -4.735741    1.783009    0.572673
H     -3.217450    1.978520    1.438961
H     -4.711799    1.665606    2.348583
H     -3.346328   -0.443285    2.185139
H     -4.876995   -0.597719    1.326558
H      0.639991   -0.062591    0.318966
H      1.706699    0.500857    1.986660
H      6.219724    0.695826    1.743604
H      5.204040   -0.033572   -0.570247
H      1.173818   -1.082908   -3.402595
H     -1.095159   -1.567757   -4.594720
