34

C      4.594247   -1.107860    0.864231
C      4.404862   -0.369784   -0.449153
O      4.297769    1.035227   -0.232584
C      2.985283    1.478553    0.113669
C      2.129969    1.724490   -1.130208
O      0.831110    2.200126   -0.781947
C     -0.155595    1.294580   -0.508080
C     -0.013055   -0.090701   -0.471756
C     -1.113614   -0.904936   -0.169230
C     -2.380028   -0.359758    0.110497
C     -3.530965   -1.301380    0.416155
C     -4.736894   -0.663443    1.112087
N     -3.967597   -1.961696   -0.815763
C     -2.514911    1.032080    0.061781
C     -1.415198    1.837388   -0.238515
F     -1.592577    3.167845   -0.266055
H      3.716483   -1.006227    1.509242
H      4.768926   -2.172906    0.686363
H      5.445922   -0.697489    1.416587
H      3.540122   -0.755602   -0.998617
H      5.288769   -0.529798   -1.075210
H      3.093325    2.424511    0.656749
H      2.503004    0.787266    0.812317
H      2.091720    0.863804   -1.807138
H      2.608260    2.514745   -1.722085
H      0.932305   -0.580826   -0.673873
H     -0.983666   -1.987052   -0.163161
H     -3.148462   -2.073888    1.095936
H     -4.432766   -0.149972    2.031060
H     -5.472540   -1.427218    1.389757
H     -5.246789    0.064062    0.470264
H     -4.771580   -2.554759   -0.618731
H     -4.292955   -1.254250   -1.473841
H     -3.462888    1.524868    0.249821
