46

C      4.644809   -1.747924    0.248835
C      3.927019   -0.508259    0.748613
O      2.517619   -0.748049    0.812681
C      1.828418   -0.491524   -0.329175
O      2.301847   -0.163066   -1.409692
C      0.395128   -0.804753   -0.122343
C     -0.030556   -1.995251   -0.626422
N      0.764929   -2.873225   -1.381047
C     -1.479918   -2.465244   -0.341672
C     -2.360659   -2.471940   -1.578866
C     -3.832899   -2.113208   -1.592655
C     -2.832021   -1.195156   -2.238512
N     -2.062091   -1.694390    0.750770
C     -1.657008   -0.417944    1.047247
C     -0.493053    0.109171    0.622408
C     -0.108436    1.575731    0.843765
N      1.061192    1.663471    1.728621
C     -1.237452    2.473051    1.416541
C     -0.830199    3.910800    1.102274
C      0.034821    3.823449   -0.150594
C      0.166604    2.333627   -0.475125
H      5.727819   -1.595994    0.249715
H      4.328208   -2.002521   -0.767586
H      4.408196   -2.610090    0.881008
H      4.156673    0.365203    0.127268
H      4.259951   -0.275100    1.765301
H      0.229658   -3.421686   -2.049239
H      1.540812   -2.396499   -1.847101
H     -1.421009   -3.501857    0.015211
H     -2.063247   -3.278009   -2.243389
H     -4.323844   -1.756713   -0.696691
H     -4.484800   -2.686410   -2.243307
H     -2.625651   -0.248036   -1.753790
H     -2.805709   -1.146820   -3.321180
H     -3.014979   -1.935266    0.995838
H     -2.382548    0.129592    1.639581
H      1.283696    2.631016    1.947461
H      0.843063    1.209210    2.614940
H     -1.401927    2.327879    2.490471
H     -2.190622    2.275720    0.908033
H     -1.706259    4.549111    0.948683
H     -0.255404    4.341663    1.929974
H     -0.410789    4.368630   -0.989080
H      1.018667    4.266944    0.040600
H      1.151539    2.127923   -0.904875
H     -0.579587    2.062740   -1.234272
