37

C     -4.945907   -1.212545    0.748100
C     -3.640728   -1.559931    0.057046
O     -2.786376   -0.409812    0.002568
C     -2.940312    0.396503   -1.085370
O     -3.805982    0.225177   -1.939602
C     -2.002598    1.524821   -1.140448
C     -0.894822    1.743200   -0.324182
C     -0.337909    0.916604    0.803722
N      0.363489   -0.243283    0.263021
C      0.862137   -1.160355    1.291878
C      1.814966   -0.479228    2.251450
N      3.067522   -0.180651    2.094433
C      3.707639   -0.468636    0.845929
C      4.914929   -0.788457    0.370953
C      4.328185   -0.666437   -0.947078
C      4.918741   -0.840371   -2.277246
N      3.169710   -0.326199   -0.504773
S     -0.067966    3.196964   -0.737961
C     -1.149953    3.544025   -2.002188
C     -2.121513    2.579005   -2.119213
H     -5.480167   -0.423998    0.210126
H     -4.758509   -0.837777    1.760104
H     -5.592782   -2.090883    0.812728
H     -3.815048   -1.975182   -0.940418
H     -3.109664   -2.325766    0.631487
H      0.339271    1.526571    1.414006
H     -1.150054    0.609583    1.471890
H      1.181686    0.079228   -0.271153
H      0.027740   -1.577089    1.867292
H      1.371373   -2.003837    0.813710
H      1.367188   -0.178462    3.213821
H      5.875363   -0.990700    0.821153
H      4.148163   -0.751101   -3.046533
H      5.389804   -1.824962   -2.346400
H      5.677885   -0.070983   -2.440896
H     -1.023143    4.432115   -2.605839
H     -2.902361    2.612847   -2.871472
