25

C      3.546989    0.141343   -0.365384
C      2.557205   -0.827234   -0.985070
O      1.238770   -0.257601   -0.980324
C      0.519634   -0.426599    0.167741
O      0.901794   -1.061014    1.140604
C     -0.822979    0.231835    0.034268
C     -1.964123   -0.760331    0.254390
C     -2.073263   -1.772627   -0.877938
S     -0.821896    1.555945    1.230455
N     -2.211682    2.410392    0.803400
O     -1.099993    1.069226    2.560556
O      0.254625    2.478372    0.950964
H      3.517493    1.105210   -0.884085
H      3.301946    0.337058    0.683323
H      4.564121   -0.257024   -0.417788
H      2.823585   -1.006589   -2.031805
H      2.572526   -1.798675   -0.477972
H     -0.905964    0.708359   -0.949837
H     -2.917302   -0.224561    0.331248
H     -1.832299   -1.298958    1.200725
H     -1.171249   -2.387913   -0.951977
H     -2.228356   -1.270777   -1.838347
H     -2.922256   -2.441492   -0.704488
H     -1.954835    3.359972    0.523034
H     -2.872491    2.393681    1.584306
