40

C      4.850746   -2.204829   -0.170256
C      4.580125   -0.752547    0.179600
O      3.168953   -0.495270    0.157065
C      2.646628   -0.131724   -1.049198
O      3.290825   -0.041208   -2.086326
C      1.145189    0.083638   -0.934054
C      0.574708    0.541218   -2.284565
C     -0.801113    1.134903   -2.198949
C     -1.370320    1.529647   -1.051450
C     -0.695951    1.444013    0.293633
C     -1.430039    0.606377    1.392343
C     -2.563905    1.412075    2.063457
C     -3.847345    1.067784    1.311120
C     -3.580805   -0.244371    0.580220
C     -2.188356   -0.688940    1.033336
N     -1.558208   -1.605209    0.101251
C      0.809268    1.090180    0.171973
H      4.510240   -2.434094   -1.184813
H      5.918661   -2.428275   -0.102498
H      4.307236   -2.871858    0.506039
H      4.927115   -0.545329    1.197521
H      5.121657   -0.072404   -0.488083
H      0.729398   -0.897025   -0.689240
H      0.549868   -0.315539   -2.969349
H      1.227675    1.290349   -2.750428
H     -1.336405    1.272463   -3.136746
H     -2.356865    1.985577   -1.088999
H     -0.684811    2.478038    0.673926
H     -0.691609    0.373804    2.171467
H     -2.382693    2.492116    2.093837
H     -2.666620    1.079844    3.106316
H     -4.101448    1.855660    0.592794
H     -4.691884    0.977633    2.001876
H     -4.337122   -0.998116    0.824182
H     -3.633244   -0.085141   -0.502069
H     -2.318332   -1.247429    1.971750
H     -1.532183   -1.173550   -0.824083
H     -2.146407   -2.431730   -0.010391
H      1.358514    2.018496   -0.041790
H      1.198859    0.751257    1.139581
