43

C      4.896791    1.793218   -2.936983
C      4.513059    0.637118   -2.034799
O      3.224304    0.914794   -1.474046
C      2.781313   -0.035267   -0.611286
O      3.370574   -1.054512   -0.299146
C      1.451286    0.384168   -0.129918
C      0.709652   -0.315926    0.745463
C      1.009506   -1.617488    1.429344
C      1.770694   -1.419950    2.731424
C     -0.583164    0.321997    1.103488
O     -0.593583    1.092458    2.059936
N     -1.691417    0.024136    0.309964
C     -2.978876    0.689671    0.618041
C     -2.910817    2.208999    0.437151
C     -3.524345    0.307905    1.996712
C     -1.657877   -0.924337   -0.832422
C     -1.925848   -0.216532   -2.161780
C     -2.598505   -2.113324   -0.623619
H      4.147218    1.935235   -3.722805
H      4.942408    2.727546   -2.367535
H      5.870174    1.616223   -3.403310
H      4.466294   -0.288714   -2.619627
H      5.253694    0.531113   -1.233817
H      1.093801    1.334687   -0.516740
H      1.567955   -2.288596    0.767486
H      0.070853   -2.145302    1.644205
H      1.973559   -2.388000    3.199898
H      2.729764   -0.919059    2.562374
H      1.192701   -0.818649    3.441590
H     -3.717890    0.333400   -0.108657
H     -2.277176    2.692046    1.187083
H     -2.512230    2.464412   -0.550664
H     -3.910359    2.648874    0.520961
H     -3.560634   -0.780564    2.111878
H     -4.541316    0.694024    2.125047
H     -2.916905    0.709227    2.812904
H     -0.657317   -1.354445   -0.917234
H     -2.948586    0.168793   -2.224495
H     -1.242886    0.629340   -2.293601
H     -1.778930   -0.904611   -3.001177
H     -2.387793   -2.610209    0.329213
H     -3.650415   -1.814891   -0.618918
H     -2.468731   -2.849008   -1.424035
