53

C      4.511451   -1.203957   -3.125198
C      5.226778   -1.326920   -1.791427
S      4.145058   -2.047934   -0.513507
C      3.139181   -0.567729   -0.053034
C      3.917876    0.270318    0.972769
C      3.364038    1.686370    1.109959
C      2.110477    1.845756    1.968157
C      1.166868    0.648257    2.091822
N      0.788383   -0.067313    0.876353
C      0.286450    0.745369   -0.230697
C     -1.016744    1.382146    0.128697
C     -1.267626    2.723362    0.338641
N     -2.595336    2.827324    0.614755
N     -3.243087    1.658014    0.579489
C     -2.291611    0.756699    0.299160
C     -2.614304   -0.715264    0.173078
C     -3.026903   -1.095538   -1.258992
C     -4.481536   -0.759067   -1.577897
C     -5.431812   -1.380503   -0.561127
C     -5.090413   -0.954924    0.861926
C     -3.627471   -1.232159    1.212031
C      1.777620   -1.072410    0.468847
H      4.153236   -2.177037   -3.478629
H      3.659677   -0.519646   -3.073783
H      5.200831   -0.812473   -3.880609
H      6.087505   -1.994303   -1.906322
H      5.609943   -0.356147   -1.464446
H      2.971894    0.014498   -0.964547
H      3.951747   -0.225125    1.951053
H      4.959819    0.377126    0.645103
H      4.144953    2.326144    1.542694
H      3.177672    2.100902    0.111491
H      2.428044    2.110386    2.985766
H      1.556076    2.720001    1.606013
H      1.593164   -0.062162    2.813152
H      0.252205    0.998165    2.588322
H      0.103275    0.111516   -1.108392
H      1.008591    1.503532   -0.550701
H     -0.626879    3.592495    0.315944
H     -3.129569    3.663405    0.826440
H     -1.678061   -1.250321    0.380987
H     -2.889296   -2.177652   -1.384390
H     -2.371013   -0.613002   -1.993984
H     -4.728274   -1.128151   -2.579877
H     -4.620674    0.327803   -1.600082
H     -5.382940   -2.473778   -0.635921
H     -6.462862   -1.091537   -0.794652
H     -5.316033    0.109382    0.987220
H     -5.738317   -1.490012    1.566495
H     -3.404286   -0.825450    2.206216
H     -3.505593   -2.321112    1.291216
H      1.310007   -1.700504   -0.302618
H      1.937821   -1.752976    1.317039
