40

C     -4.752612    0.612640   -1.228324
N     -4.346239    1.182593    0.054420
C     -4.625266    0.253269    1.142335
C     -2.972419    1.706545    0.039411
C     -1.801950    0.765990   -0.319718
N     -1.499496   -0.182607    0.765407
S     -1.309296   -1.809602    0.418385
O     -1.331692   -2.481572    1.697856
O     -2.236246   -2.156686   -0.633275
C      0.345973   -1.862802   -0.224251
C      1.352159   -1.535415    0.855377
N      2.669415   -1.325932    0.284629
N      3.366501   -2.396734   -0.140078
C      4.495428   -1.867981   -0.617498
C      4.522311   -0.458909   -0.523995
C      5.402963    0.580591   -0.860108
Cl     6.882209    0.132230   -1.584737
C      5.069145    1.910659   -0.610862
C      3.844387    2.215185   -0.019705
C      2.937492    1.205994    0.331663
C      3.303241   -0.125247    0.069968
H     -4.580564    1.326205   -2.041694
H     -4.223238   -0.315867   -1.464307
H     -5.827078    0.396894   -1.225356
H     -5.704391    0.077433    1.219210
H     -4.141588   -0.718132    1.008039
H     -4.310977    0.671652    2.104701
H     -2.767724    2.175162    1.011281
H     -2.952584    2.536091   -0.680073
H     -0.902370    1.377943   -0.459768
H     -1.977013    0.265163   -1.275613
H     -1.938584   -0.016257    1.672446
H      0.394798   -1.170883   -1.071791
H      0.503288   -2.874544   -0.613818
H      1.438389   -2.351501    1.582478
H      1.082663   -0.635751    1.416567
H      5.253582   -2.527565   -1.020677
H      5.759236    2.707330   -0.874858
H      3.588824    3.255226    0.175390
H      1.989319    1.459193    0.796096
