49

C     -6.998533    0.486426    1.472922
N     -6.270019   -0.505488    2.256103
C     -5.253997    0.122512    3.091423
C     -5.757561   -1.623961    1.452065
C     -4.737520   -1.292150    0.382908
C     -3.361638   -1.309904    0.672233
C     -2.407615   -1.001067   -0.308196
N     -1.050785   -1.056834    0.069946
C      0.040527   -0.658066   -0.665679
O      0.034756   -0.077993   -1.743564
N      1.214314   -0.971876   -0.010156
C      2.517470   -0.744430   -0.637736
C      2.841568    0.742594   -0.920153
O      2.307450    1.158077   -2.177790
C      4.343944    0.962047   -0.932565
C      5.100259    0.772721   -2.098365
C      6.487276    0.934220   -2.083955
C      7.151998    1.291088   -0.900791
C      8.652691    1.443773   -0.893079
F      9.294016    0.245324   -0.982527
F      9.133406    2.039223    0.234474
F      9.115031    2.191726   -1.933603
C      6.398804    1.476068    0.267883
C      5.010316    1.313969    0.250912
C     -2.840516   -0.683222   -1.595629
C     -4.204528   -0.666444   -1.898423
C     -5.146681   -0.969698   -0.917279
H     -7.507139    1.195268    2.136038
H     -7.781606    0.010668    0.871750
H     -6.345998    1.062513    0.807422
H     -4.741637   -0.624222    3.707391
H     -4.503987    0.669546    2.511840
H     -5.720198    0.830073    3.786312
H     -6.604897   -2.144668    0.984267
H     -5.328128   -2.378093    2.125809
H     -3.044080   -1.567072    1.679886
H     -0.864083   -1.283185    1.035025
H      1.155687   -1.816074    0.541061
H      2.543897   -1.331181   -1.562088
H      3.245249   -1.169960    0.062126
H      2.391300    1.385332   -0.154341
H      1.370617    0.860423   -2.191532
H      4.603447    0.507384   -3.031463
H      7.048949    0.782288   -3.005095
H      6.891444    1.748828    1.201323
H      4.451068    1.461769    1.172707
H     -2.141215   -0.451375   -2.393075
H     -4.528644   -0.416677   -2.905713
H     -6.204480   -0.950219   -1.172907
