62

C     -5.502892    1.222803   -1.682127
N     -5.415983   -0.161078   -2.142992
C     -6.084752   -0.287234   -3.442919
C     -4.030018   -0.651611   -2.251137
C     -3.262836   -0.789445   -0.922011
C     -2.458191    0.466130   -0.534922
C     -1.412232    0.257234    0.610466
C     -2.014532   -0.212565    1.953684
C     -3.347078    0.077556    2.302082
C     -3.892769   -0.330067    3.524841
C     -3.112164   -1.017686    4.445702
C     -1.781782   -1.285238    4.148114
C     -1.239771   -0.880341    2.922744
C     -0.697811    1.611253    0.869570
C      0.773577    1.257387    1.007953
N      0.941868    0.226823   -0.013553
C      2.188309   -0.536060    0.101093
C      3.415254    0.313786   -0.269325
C      4.784911   -0.428593   -0.224372
C      5.096533   -0.944575    1.196959
C      4.765238   -1.654793   -1.168460
C      5.884426    0.537091   -0.692808
N      6.533471    0.417160   -1.836337
C      7.455805    1.432972   -1.975783
C      7.504313    2.336665   -0.938597
S      6.365516    1.899940    0.260157
C     -0.248221   -0.638096    0.073515
H     -6.534845    1.591529   -1.745754
H     -5.235202    1.294534   -0.624706
H     -4.865101    1.897569   -2.265874
H     -6.085169   -1.330881   -3.776916
H     -5.604310    0.323598   -4.216317
H     -7.136460    0.013534   -3.369887
H     -4.077637   -1.665729   -2.672024
H     -3.451680   -0.049789   -2.965728
H     -2.574907   -1.635476   -1.032918
H     -3.957379   -1.076333   -0.125107
H     -1.923503    0.817111   -1.429391
H     -3.132091    1.285529   -0.268569
H     -3.997800    0.629286    1.629281
H     -4.930957   -0.103911    3.755545
H     -3.536563   -1.333268    5.395478
H     -1.156932   -1.803760    4.870967
H     -0.186412   -1.089413    2.756516
H     -0.817781    2.288230    0.012664
H     -1.065986    2.145325    1.752992
H      1.398248    2.135537    0.817271
H      0.992875    0.885313    2.015396
H      2.129938   -1.383535   -0.590959
H      2.292018   -0.947690    1.112060
H      3.461108    1.180234    0.403342
H      3.265068    0.723217   -1.279769
H      4.416326   -1.751197    1.492524
H      6.117770   -1.341699    1.260353
H      5.004302   -0.150908    1.947354
H      5.757265   -2.119211   -1.235985
H      4.076571   -2.431634   -0.817990
H      4.461418   -1.371864   -2.183982
H      8.073648    1.467997   -2.865601
H      8.137474    3.205171   -0.830554
H     -0.449051   -1.012979   -0.936311
H     -0.072452   -1.523854    0.691062
