57

C     -3.986536   -1.281352    1.214404
N     -4.156647   -1.634603   -0.187271
C     -5.293260   -2.504506   -0.489808
C     -6.551765   -1.772921   -0.871489
C     -7.419227   -1.130655    0.188370
C     -6.725275   -0.270088   -0.830076
C     -3.414586   -1.165197   -1.261925
O     -3.661244   -1.536252   -2.416345
C     -2.267806   -0.169709   -1.070501
C     -1.064711   -0.744648   -0.313872
C     -0.459076    0.259789    0.663716
N     -0.290551    1.560881   -0.021859
S      0.761091    2.671604    0.746116
O      0.808407    3.876406   -0.054630
O      0.392105    2.712294    2.146192
C      2.342872    1.880468    0.599885
C      2.977026    1.354337    1.721372
C      4.233948    0.748379    1.585932
C      4.889058    0.667052    0.342038
N      6.176825    0.051572    0.212818
C      6.759326   -0.754222    1.167942
O      6.298578   -1.165232    2.224850
C      8.151972   -1.104440    0.736956
C      8.205672   -0.691611   -0.709072
C      7.004835    0.189018   -0.882431
O      6.869598    0.886638   -1.879457
C      4.223166    1.221565   -0.766927
C      2.963556    1.823905   -0.645518
C     -1.567616    2.183931   -0.481426
C     -2.725320    1.188115   -0.537728
H     -4.080756   -2.182585    1.827806
H     -4.757744   -0.565000    1.502126
H     -3.014466   -0.846440    1.420162
H     -5.485788   -3.162470    0.366965
H     -5.014185   -3.167262   -1.319317
H     -7.074994   -2.310300   -1.659689
H     -8.494097   -1.250171    0.102130
H     -7.063616   -1.096621    1.211582
H     -5.908310    0.359236   -0.497642
H     -7.327410    0.181602   -1.612973
H     -1.906933    0.026573   -2.093480
H     -0.298758   -1.020354   -1.052432
H     -1.306397   -1.676223    0.209913
H     -1.092542    0.382848    1.548394
H      0.503066   -0.134186    1.001676
H      2.513308    1.411420    2.704954
H      4.689426    0.371508    2.498201
H      8.337938   -2.175210    0.855034
H      8.865255   -0.538434    1.345308
H      8.117176   -1.552110   -1.380128
H      9.124998   -0.144012   -0.935183
H      4.650338    1.190299   -1.766761
H      2.479823    2.245804   -1.525037
H     -1.389748    2.590605   -1.483581
H     -1.856401    3.015315    0.172058
H     -3.526916    1.593849   -1.166286
H     -3.156685    1.101804    0.462856
