38

C     -2.144958   -3.113251   -0.269518
N     -1.871731   -1.880153    0.477425
C     -0.452207   -1.468431    0.458116
C     -0.153048   -0.281465    1.388677
O      1.242040    0.014035    1.521700
C      1.840732    0.548869    0.357986
C      2.906208    1.547206    0.759025
C      3.758768    1.612436   -0.489242
C      5.195358    2.065555   -0.242656
O      5.851002    1.210437    0.689265
O      3.763828    0.269844   -0.996950
C      2.680753   -0.400504   -0.491703
O      2.442694   -1.573841   -0.728743
C     -2.848256   -0.889179    0.244471
C     -3.782024   -0.720525    1.287793
C     -4.806356    0.221918    1.216216
C     -4.924175    1.022742    0.087460
C     -4.021875    0.876328   -0.969957
Cl    -4.249305    1.919299   -2.335845
C     -2.985276   -0.076432   -0.906179
Cl    -1.905642   -0.240849   -2.258527
H     -1.932557   -3.003797   -1.337743
H     -1.517842   -3.924921    0.115693
H     -3.187470   -3.429441   -0.146997
H      0.158462   -2.315760    0.796456
H     -0.113221   -1.258384   -0.558478
H     -0.516364   -0.517701    2.395467
H     -0.678822    0.626900    1.072479
H      1.103212    1.031433   -0.296538
H      3.464529    1.172595    1.626152
H      2.490841    2.520049    1.040017
H      3.298152    2.255918   -1.248734
H      5.218644    3.084903    0.153974
H      5.772071    2.038917   -1.172894
H      5.831212    0.312137    0.308323
H     -3.696836   -1.342395    2.178466
H     -5.507108    0.327327    2.040746
H     -5.723436    1.758181    0.033391
