37

C     -2.955265   -0.774397   -1.829709
N     -3.419969   -0.718299   -0.444722
C     -3.560079   -2.023933    0.207542
C     -2.815480    0.233894    0.397675
C     -3.696113    0.986127    1.202728
C     -3.232719    1.985373    2.060192
Cl    -4.350099    2.881009    3.014171
C     -1.874269    2.263908    2.147069
C     -0.976483    1.528608    1.375670
C     -1.439028    0.518212    0.508609
C     -0.400388   -0.257547   -0.197273
O     -0.235389   -1.461521   -0.104274
O      0.336268    0.604977   -0.940263
C      1.456090    0.020254   -1.629872
C      2.627880   -0.217655   -0.675788
C      3.799767   -0.922638   -1.337106
C      4.949161   -0.479531   -0.467306
C      4.582042    0.958539   -0.169083
O      3.149171    1.040514   -0.193677
H     -2.056870   -1.387142   -1.946512
H     -2.765348    0.227776   -2.230314
H     -3.737231   -1.224251   -2.451696
H     -4.153984   -2.693712   -0.424266
H     -2.589113   -2.498041    0.383521
H     -4.086660   -1.935959    1.164800
H     -4.764748    0.790573    1.136355
H     -1.508308    3.040780    2.812832
H      0.090094    1.734395    1.456086
H      1.146807   -0.904082   -2.132178
H      1.742265    0.739103   -2.405439
H      2.303960   -0.772425    0.212230
H      3.676229   -2.008501   -1.373406
H      3.950962   -0.558260   -2.360503
H      4.959695   -1.063200    0.460867
H      5.927289   -0.579891   -0.944805
H      4.966239    1.633650   -0.940971
H      4.953624    1.293293    0.803460
