55

C      2.414015    2.196466    0.372961
N      2.323388    0.876352   -0.275260
C      1.500562    1.025186   -1.518273
C     -0.001732    1.045417   -1.184116
O     -0.807896    1.601263   -1.923182
N     -0.285583    0.342618   -0.022519
C     -1.497154    0.078243    0.609133
C     -1.391373   -0.464897    1.837756
C     -2.378668   -0.849732    2.816105
C     -3.708776   -0.955473    2.700086
Cl    -4.595706   -1.514855    4.102924
C     -4.578791   -0.607725    1.522927
N     -4.826395   -1.815363    0.733572
C     -4.077573    0.628989    0.725345
C     -5.192517    1.188548   -0.201642
C     -5.016846    0.798246   -1.666109
O     -4.434630   -0.495174   -1.747367
C     -3.057754   -0.484919   -1.324775
C     -2.788856    0.442985   -0.112084
C      3.656949    0.291038   -0.592077
C      3.500299   -1.229793   -0.838925
C      4.830274   -1.908792   -1.162302
C      5.864315   -1.670113   -0.071809
C      6.043172   -0.182999    0.196860
C      4.714184    0.498758    0.520504
H      2.831755    2.108129    1.381076
H      1.421949    2.642419    0.509459
H      3.022787    2.898665   -0.208445
H      1.765437    1.940752   -2.060944
H      1.630462    0.183125   -2.204480
H      0.573260    0.072833    0.461047
H     -0.386651   -0.663247    2.218617
H     -1.933910   -1.139990    3.769664
H     -5.554563   -0.300155    1.926109
H     -5.569630   -2.360666    1.165504
H     -5.149175   -1.561441   -0.205013
H     -3.881616    1.417392    1.468646
H     -5.213369    2.283933   -0.137728
H     -6.178354    0.856360    0.145971
H     -4.394434    1.521862   -2.206597
H     -5.990652    0.773298   -2.165752
H     -2.454890   -0.195425   -2.191271
H     -2.785713   -1.521878   -1.098114
H     -2.628977    1.455079   -0.509035
H      4.048201    0.764407   -1.504085
H      3.062884   -1.703556    0.050693
H      2.814995   -1.434799   -1.667606
H      4.670889   -2.985779   -1.286159
H      5.209704   -1.530518   -2.119331
H      6.822965   -2.111503   -0.366479
H      5.549108   -2.175043    0.849685
H      6.494252    0.296966   -0.680710
H      6.740619   -0.041660    1.030476
H      4.334100    0.110480    1.474511
H      4.921661    1.565687    0.662557
