45

C     -2.020745    1.257121   -2.151036
N     -2.588700    1.509257   -0.843189
C     -3.352846    2.627504   -0.601878
C     -3.735321    2.619415    0.714077
C     -3.190445    1.453951    1.289926
C     -2.490734    0.749139    0.314282
C     -1.711932   -0.574923    0.462254
C     -0.196526   -0.245334    0.528713
N      0.703458   -1.392137    0.581339
C      2.066168   -1.411947    0.430394
S      2.772210   -2.924186    0.418816
N      2.654713   -0.175909    0.337755
C      3.952464    0.222964   -0.053829
C      4.349908    1.518878    0.307267
C      5.607021    2.012136   -0.053038
C      6.477722    1.219258   -0.793428
C      6.085128   -0.059536   -1.178945
C      4.825980   -0.552141   -0.816824
C     -2.107957   -1.615285   -0.608470
C     -3.468329   -2.147430   -0.157159
C     -3.478255   -2.020742    1.363605
C     -2.152672   -1.354346    1.732320
H     -1.087229    0.703987   -2.063313
H     -2.754391    0.697518   -2.736466
H     -1.811650    2.214120   -2.638181
H     -3.560418    3.341798   -1.388421
H     -4.339551    3.370475    1.205783
H     -3.310833    1.160739    2.324715
H      0.008650    0.357024    1.423314
H      0.112357    0.360405   -0.328552
H      0.305776   -2.318325    0.694561
H      2.111013    0.560882    0.763424
H      3.691965    2.160138    0.888171
H      5.904360    3.013810    0.245886
H      7.456464    1.597550   -1.076059
H      6.754637   -0.678609   -1.771050
H      4.551928   -1.535637   -1.179657
H     -2.158301   -1.243077   -1.631328
H     -1.401725   -2.454131   -0.622447
H     -3.620085   -3.181990   -0.481073
H     -4.277615   -1.546509   -0.587993
H     -3.575675   -2.996922    1.849891
H     -4.328425   -1.409538    1.686084
H     -1.434152   -2.147882    1.972743
H     -2.237410   -0.741532    2.634331
