41

C     -5.042500   -0.155393    0.339262
N     -3.782150    0.538428    0.596060
C     -3.705558    1.785850   -0.189546
C     -2.253409    2.257501   -0.340253
O     -1.440122    1.339190   -1.085136
C     -1.877501   -0.018980   -0.991141
C     -0.778305   -1.090378   -1.197256
O     -1.049137   -2.092218   -1.870156
N      0.450207   -0.965376   -0.546569
C      1.390283   -2.085260   -0.644311
C      2.478797   -1.884309   -1.701459
C      3.185887   -0.528212   -1.652727
C      3.418450   -0.044863   -0.243669
N      4.698196   -0.039644    0.197488
C      4.903955    0.357992    1.468411
Cl     6.545284    0.347176    1.964642
C      3.902945    0.748647    2.338550
C      2.591962    0.731094    1.873111
C      2.328664    0.322954    0.560828
C      0.919159    0.309063    0.017103
C     -2.611782   -0.330970    0.333133
H     -5.140649   -1.026599    0.996268
H     -5.893366    0.499705    0.556924
H     -5.123188   -0.495318   -0.699467
H     -4.125044    1.636524   -1.193235
H     -4.295731    2.561571    0.310427
H     -1.787320    2.409063    0.640530
H     -2.222473    3.217957   -0.864717
H     -2.577961   -0.163476   -1.825532
H      1.825927   -2.254538    0.347967
H      0.850714   -3.011114   -0.875815
H      3.220899   -2.682990   -1.575942
H      2.051339   -2.014924   -2.703249
H      2.603021    0.223966   -2.198472
H      4.142415   -0.602899   -2.184623
H      4.131876    1.058652    3.351527
H      1.784581    1.033379    2.535800
H      0.867632    1.072139   -0.767055
H      0.216442    0.597613    0.805091
H     -1.919314   -0.167613    1.168114
H     -2.883125   -1.393392    0.385040
