43

C     -2.861717   -2.025565   -0.694989
N     -1.775981   -1.130637   -0.325161
C     -1.072529   -1.418710    0.936892
C     -2.121290   -1.202801    1.981750
C     -2.639717    0.171612    1.426930
C     -2.173915    0.230976   -0.067805
C     -0.918398    1.116058   -0.388678
C     -1.296015    2.545027   -0.656517
C     -2.051914    2.908895   -1.914446
C     -0.622098    3.328723   -1.760926
N      0.377519    0.916537   -0.419453
N      1.185567   -0.208554   -0.212828
C      2.611557    0.123552   -0.099158
C      3.209346   -0.390920    1.210206
C      4.697669   -0.094274    1.325506
N      4.948090    1.363458    1.519684
O      5.549943    1.597577    2.573684
C      0.842379   -1.629870   -0.507129
C      0.039001   -2.363351    0.623160
H     -2.510524   -3.061338   -0.745982
H     -3.726500   -1.988548   -0.025185
H     -3.219633   -1.767831   -1.698184
H     -0.435412   -0.589396    1.280427
H     -2.901346   -1.968852    2.001315
H     -1.718479   -1.091545    2.993516
H     -2.216850    1.001786    2.003559
H     -3.731504    0.205591    1.507154
H     -2.995212    0.564222   -0.712429
H     -1.532708    3.102069    0.244771
H     -2.265267    2.131346   -2.639689
H     -2.815486    3.674562   -1.844342
H      0.126731    2.825295   -2.363389
H     -0.407711    4.374574   -1.576071
H      2.718195    1.213705   -0.152656
H      3.127912   -0.295619   -0.970432
H      3.072689   -1.477313    1.269214
H      2.662306    0.037121    2.060108
H      5.237701   -0.390671    0.420902
H      5.124123   -0.640315    2.174404
H      0.328925   -1.653563   -1.475429
H      1.775574   -2.185061   -0.661792
H      0.678577   -2.513318    1.500253
H     -0.303598   -3.344635    0.280644
