37

C     -3.251310    2.746108    0.084667
N     -3.594980    1.366425   -0.236737
C     -5.025951    1.111098   -0.056738
C     -5.117358   -0.405781   -0.052649
C     -3.736309   -0.890550    0.375143
C     -2.923038    0.383200    0.630741
C     -1.426551    0.180758    0.347059
O     -0.930252   -0.845634    1.215841
C      0.367166   -1.121193    1.117023
C      1.159203   -2.047471    1.750059
C      2.470507   -1.862638    1.243013
C      2.405336   -0.827611    0.322754
C      3.391053   -0.164937   -0.522049
O      3.118742    0.833217   -1.180217
N      4.630374   -0.772040   -0.501835
C      5.690538   -0.284582   -1.214066
N      5.795361    0.771185   -1.981830
N      7.068114    0.900248   -2.510704
C      7.860932   -0.070280   -2.112709
S      7.121145   -1.210705   -1.064646
O      1.110575   -0.380096    0.254859
H     -3.462612    2.996439    1.130333
H     -3.815403    3.435851   -0.552862
H     -2.191375    2.939011   -0.109252
H     -5.625384    1.546941   -0.862203
H     -5.391146    1.506142    0.900550
H     -5.898874   -0.757232    0.627991
H     -5.348904   -0.784241   -1.054989
H     -3.299996   -1.502236   -0.423940
H     -3.796012   -1.511352    1.275382
H     -3.051224    0.651905    1.689670
H     -0.886371    1.115159    0.541482
H     -1.274723   -0.112763   -0.699691
H      0.824512   -2.760490    2.489169
H      3.347715   -2.420326    1.535357
H      4.792007   -1.610928    0.027441
H      8.894490   -0.140599   -2.421417
