51

C     -6.207864    2.068734   -2.716788
N     -5.257751    1.539597   -1.777450
N     -3.929753    1.860585   -1.818937
C     -3.377048    1.066879   -0.941077
C     -1.877679    1.131274   -0.720154
C     -1.158154   -0.179065   -1.034117
C      0.341553   -0.018618   -0.802696
N      0.663277    0.489514    0.533178
C      1.919762    0.352004    1.133158
O      2.070064    0.496316    2.342982
N      2.934902    0.057289    0.247481
C      4.274072   -0.263718    0.548953
C      4.742906   -0.523748    1.838701
C      6.084909   -0.853195    2.051159
C      6.966792   -0.929105    0.976879
F      8.235231   -1.278557    1.232716
C      6.519915   -0.674033   -0.317100
C      7.396378   -0.748796   -1.502569
O      7.001182   -0.799181   -2.654662
O      8.705815   -0.712875   -1.217347
C      5.168900   -0.348798   -0.526440
C     -0.457458    0.872231    1.389945
C     -1.493766    1.711305    0.646015
N     -4.241027    0.241803   -0.307377
C     -3.992566   -0.833931    0.597079
C     -3.643677   -0.618431    2.047720
C     -4.972520   -1.199161    1.689509
C     -5.472466    0.480223   -0.896693
O     -6.520314   -0.124666   -0.724356
H     -7.225214    1.825120   -2.400515
H     -6.088932    3.153568   -2.777828
H     -6.020690    1.618682   -3.694965
H     -1.514666    1.856381   -1.465874
H     -1.523733   -0.994894   -0.404478
H     -1.347584   -0.478851   -2.071654
H      0.758783    0.689148   -1.528636
H      0.841366   -0.982770   -0.949131
H      2.736984    0.258500   -0.719351
H      4.086340   -0.487715    2.703866
H      6.445059   -1.058143    3.055279
H      9.156120   -0.759877   -2.085647
H      4.825316   -0.159958   -1.541773
H     -0.101493    1.435495    2.259726
H     -0.899591   -0.054234    1.770669
H     -1.063341    2.708263    0.478188
H     -2.368113    1.879381    1.282319
H     -3.557811   -1.693983    0.093193
H     -3.651185    0.383382    2.459352
H     -2.915440   -1.280295    2.502138
H     -5.143884   -2.252460    1.881549
H     -5.851905   -0.581579    1.835859
