57

C     -0.766937   -2.183565   -2.927105
N     -1.082490   -1.472822   -1.709619
N     -1.184226   -0.136302   -1.742599
C     -1.496387    0.211906   -0.481481
C     -1.652990    1.686668   -0.167240
C     -0.376244    2.254233    0.463212
C      0.696041    2.438352   -0.596387
O      0.497183    3.158373   -1.573298
N      1.876457    1.777649   -0.300742
C      2.969363    1.773283   -1.155768
C      3.153094    2.290099   -2.420416
C      4.462028    1.927581   -2.785721
N      5.091439    1.245622   -1.826888
N      4.170760    1.171202   -0.836599
C      4.565801    0.603581    0.442183
C      3.739987   -0.609663    0.774873
C      4.062514   -1.855770    0.236500
C      3.266089   -2.951562    0.556209
C      2.172965   -2.775692    1.396275
C      1.911738   -1.502117    1.879524
N      2.659184   -0.413709    1.583629
C     -2.937806    1.828954    0.646036
C     -2.955633    2.239437    1.991607
C     -4.161813    2.356108    2.689584
C     -5.367637    2.077673    2.056106
C     -5.375188    1.683100    0.719330
C     -4.173883    1.563244    0.020191
C     -1.586973   -0.941475    0.361493
C     -1.870741   -1.199086    1.718264
C     -1.895255   -2.522080    2.176860
C     -1.634788   -3.582732    1.310851
C     -1.338314   -3.354597   -0.034915
C     -1.320930   -2.024357   -0.478527
H      0.039662   -2.893911   -2.723875
H     -0.441453   -1.471368   -3.690410
H     -1.669001   -2.706607   -3.261942
H     -1.839032    2.228465   -1.106913
H     -0.552541    3.250665    0.883676
H     -0.018404    1.621999    1.282634
H      1.921891    1.196416    0.539269
H      2.433610    2.835241   -3.015311
H      4.981655    2.135543   -3.711614
H      4.429850    1.389736    1.197549
H      5.633953    0.354888    0.409640
H      4.915460   -1.973460   -0.427256
H      3.494434   -3.934009    0.151577
H      1.534310   -3.610261    1.666286
H      1.067025   -1.320239    2.540452
H     -2.035713    2.471214    2.526554
H     -4.157575    2.668681    3.731815
H     -6.302249    2.171801    2.601034
H     -6.313087    1.469708    0.218281
H     -4.200638    1.253072   -1.027687
H     -2.095355   -0.390641    2.408998
H     -2.133653   -2.720587    3.218170
H     -1.670394   -4.604391    1.683068
H     -1.139167   -4.183490   -0.709378
