48

C      2.992502    0.200522    3.698688
N      1.887228   -0.716670    3.873371
C      1.142474   -1.017420    2.865656
N      1.138114   -0.549369    1.579179
C      1.104113    0.863949    1.252003
C      1.985881    1.143069    0.052545
C      1.599199    0.687256   -1.215059
C      2.398878    0.925882   -2.335521
C      3.605814    1.621692   -2.209778
C      4.456674    1.896279   -3.411528
C      3.991472    2.091558   -0.947186
C      3.190559    1.849970    0.174478
S      0.042815   -2.358442    3.210306
C     -1.559229   -1.579752    2.852063
C     -1.905707   -1.687788    1.406130
N     -1.491726   -0.738066    0.558742
N     -1.759468   -1.032003   -0.836373
C     -2.850290   -0.380889   -1.323847
C     -2.404184    0.455817   -2.496137
C     -1.658544   -0.213614   -3.617850
S     -3.218935    0.350459   -4.037598
C     -4.149750   -0.293222   -0.947015
C     -4.964622   -0.896391   -0.069927
C     -4.928448   -1.893102    0.822820
C     -3.973328   -2.723824    1.251996
O     -2.645068   -2.757688    0.949478
H      3.472083    0.123207    2.718039
H      2.683015    1.231374    3.893493
H      3.766842   -0.039447    4.435817
H      0.311204   -0.943510    1.054502
H      0.087800    1.208875    1.036069
H      1.426787    1.486899    2.090639
H      0.662634    0.130987   -1.315126
H      2.058212    0.549244   -3.297060
H      4.318462    2.929645   -3.744531
H      5.516153    1.737296   -3.174407
H      4.204630    1.226215   -4.240055
H      4.920690    2.641757   -0.825393
H      3.510498    2.208582    1.148576
H     -2.309467   -2.098004    3.457722
H     -1.554851   -0.538101    3.191434
H     -2.072231    1.445958   -2.201154
H     -0.805569    0.317420   -4.013007
H     -1.509343   -1.284823   -3.530064
H     -4.689834    0.459319   -1.525968
H     -5.964943   -0.459347   -0.124914
H     -5.887813   -2.077725    1.305288
H     -4.171384   -3.504033    1.972891
