47

C     -0.278080    3.888329   -2.189628
N      0.203852    2.838380   -1.304712
C     -0.144577    1.484947   -1.792896
C     -1.560240    1.084350   -1.333130
C     -1.743719    1.067442    0.190747
C     -3.140351    0.633636    0.565908
C     -4.155545    1.579369    0.742886
C     -5.447778    1.169274    1.070006
C     -5.740826   -0.189096    1.219037
C     -4.740383   -1.144407    1.040245
O     -4.892290   -2.499547    1.151638
C     -6.184778   -2.973468    1.506448
C     -3.446470   -0.727092    0.712724
C      0.891838    0.478648   -1.366287
N      2.090682    0.679187   -0.866482
C      2.577113   -0.606171   -0.712751
C      3.907160   -0.893965   -0.162535
C      4.335469   -2.206044    0.031283
C      5.606714   -2.432713    0.557859
C      6.419968   -1.350273    0.890014
C      7.802066   -1.548853    1.425109
C      5.918709   -0.077026    0.649632
N      4.692417    0.173456    0.139496
N      1.715619   -1.557121   -1.124336
O      0.607991   -0.839384   -1.566213
H     -1.369023    3.878821   -2.271045
H      0.157124    3.802209   -3.190533
H      0.009325    4.863406   -1.783994
H      1.225871    2.895095   -1.241318
H     -0.121524    1.477227   -2.891320
H     -2.293921    1.770790   -1.776349
H     -1.806818    0.094108   -1.740123
H     -1.023085    0.389317    0.663764
H     -1.550906    2.059600    0.616553
H     -3.943913    2.640182    0.628247
H     -6.230615    1.910433    1.209460
H     -6.758042   -0.465858    1.473284
H     -6.924007   -2.713879    0.741456
H     -6.136137   -4.065127    1.564679
H     -6.486068   -2.600945    2.491132
H     -2.670712   -1.477282    0.572624
H      3.697481   -3.047563   -0.221175
H      5.951857   -3.452918    0.706552
H      8.519991   -1.600388    0.600803
H      7.866304   -2.474013    2.007504
H      8.085615   -0.726383    2.090241
H      6.506640    0.811308    0.866867
