16

C     -2.990459   -0.673038   -0.092778
N     -1.667924   -0.110781    0.015788
C     -0.584136   -0.911905    0.334999
O     -0.735675   -2.099984    0.610751
C      0.709419   -0.239221    0.295265
C      1.019900    1.112322    0.247168
C      2.428248    1.352041    0.219323
C      3.128467    0.175947    0.254502
Cl     4.836468    0.001925    0.239815
S      2.143508   -1.193563    0.324143
H     -3.189526   -1.339755    0.750598
H     -3.715804    0.143750   -0.100326
H     -3.057019   -1.236800   -1.027081
H     -1.498752    0.783237   -0.419988
H      0.282590    1.905328    0.247143
H      2.890696    2.330497    0.182693
