40

C     -0.979983    4.629690    0.266531
N     -0.811050    3.199845    0.314104
C     -1.718474    2.364107   -0.320144
O     -2.755639    2.780933   -0.836511
C     -1.349972    0.850362   -0.277034
C     -0.041775    0.646080   -0.990811
C      1.154416    0.373800   -0.436886
C      2.378594    0.232560   -1.334518
C      3.374617   -0.833958   -0.844760
C      3.515757   -0.872124    0.658605
C      4.726211   -1.547694    1.220962
C      2.544406   -0.345504    1.419335
N      1.405830    0.233066    0.914545
N     -2.360945    0.063629   -0.996132
C     -2.804516   -1.053613   -0.286618
C     -1.952928   -2.107781    0.030455
C     -2.454906   -3.198960    0.735362
C     -3.794153   -3.211271    1.097884
C     -4.572858   -2.127138    0.733826
N     -4.105316   -1.056255    0.054124
H     -0.319892    5.082582    1.009717
H     -0.711295    4.982247   -0.732824
H     -2.019141    4.894917    0.479014
H      0.124330    2.839777    0.472156
H     -1.306255    0.581550    0.785650
H     -0.105477    0.745895   -2.073995
H      2.890164    1.204850   -1.351342
H      2.096765    0.007489   -2.370251
H      3.051758   -1.824718   -1.188578
H      4.348506   -0.634048   -1.307625
H      4.774136   -2.586818    0.880020
H      5.635044   -1.031946    0.894968
H      4.719573   -1.554244    2.315946
H      2.576847   -0.382958    2.505124
H      0.624076    0.275519    1.560160
H     -3.203306    0.639729   -1.107224
H     -0.914568   -2.093854   -0.282468
H     -1.806697   -4.033067    0.986448
H     -4.222891   -4.045570    1.640757
H     -5.628989   -2.087106    0.984404
