48

C      8.555837    1.760128   -0.409636
N      7.268284    1.263567    0.008633
C      6.111098    1.805512   -0.508618
O      6.081879    2.762528   -1.272894
C      4.864437    1.087193   -0.071731
C      3.766619    1.145677   -0.832588
C      2.489725    0.463709   -0.463264
C      2.558997   -0.361665    0.792578
C      1.572908   -1.163944    1.241712
C      0.280900   -1.343417    0.611390
C     -0.629387   -2.215486    1.072393
S     -2.155746   -2.359048    0.258583
O     -1.897064   -2.702265   -1.125409
O     -3.015135   -3.202155    1.064282
N     -2.830002   -0.798534    0.278928
C     -3.233681   -0.290252    1.603186
C     -3.773116   -0.505527   -0.817906
C     -5.121746   -1.236565   -0.689356
C     -6.249122   -0.299411   -0.267578
C     -6.329531    0.918107   -1.183626
C     -4.967885    1.319325   -1.739557
O     -3.930112    0.918622   -0.852161
C      3.806934   -0.317642    1.616340
O      3.913367   -0.884973    2.700577
N      4.856369    0.392202    1.107164
H      8.542849    2.852831   -0.471267
H      8.788498    1.344944   -1.391898
H      9.302692    1.441041    0.318157
H      7.224068    0.325152    0.380904
H      3.776275    1.711625   -1.762199
H      2.204026   -0.179479   -1.304735
H      1.713425    1.232036   -0.351203
H      1.734957   -1.739496    2.158992
H      0.045748   -0.743531   -0.264941
H     -0.471287   -2.855123    1.928146
H     -2.426349   -0.424105    2.329048
H     -3.437140    0.784064    1.562731
H     -4.126517   -0.802496    1.972690
H     -3.298386   -0.781114   -1.767321
H     -5.376838   -1.650997   -1.674703
H     -5.076483   -2.096724   -0.013499
H     -6.075811    0.036279    0.761878
H     -7.208638   -0.829184   -0.263976
H     -6.759526    1.752369   -0.615408
H     -7.017587    0.733260   -2.016824
H     -4.920080    2.406944   -1.859649
H     -4.795829    0.878649   -2.729014
H      5.663104    0.447371    1.715849
