43

C      4.155850    2.882222    0.072371
N      3.901575    1.682903   -0.684209
C      3.139996    1.742714   -1.836349
O      2.749732    2.796392   -2.332446
C      2.834299    0.388171   -2.452831
C      1.949381   -0.468925   -1.577059
C      2.442999   -1.661931   -1.012874
C      1.642394   -2.445181   -0.178106
C      0.344586   -2.030218    0.075914
C     -0.164240   -0.852675   -0.483478
C      0.630441   -0.067035   -1.309738
C     -1.596455   -0.594309   -0.033408
C     -2.490600   -0.228430   -1.227229
C     -1.588482    0.510347    1.056510
C     -2.924358    1.178803    1.424701
C     -3.948576    0.256265    2.061891
O     -2.652842    2.213901    2.376947
C     -1.963993   -2.009798    0.510228
C     -0.662722   -2.693996    0.959790
O     -0.406085   -2.427094    2.329147
H      4.668395    3.611775   -0.559814
H      3.203353    3.301167    0.407379
H      4.775515    2.628297    0.933731
H      3.915986    0.799537   -0.184384
H      3.784791   -0.114254   -2.667050
H      2.339214    0.543672   -3.418609
H      3.459602   -1.987843   -1.221244
H      2.030114   -3.360522    0.260700
H      0.241396    0.856787   -1.732146
H     -3.550879   -0.234537   -0.952216
H     -2.366629   -0.937902   -2.054690
H     -2.249109    0.765790   -1.617019
H     -0.919881    1.319954    0.727750
H     -1.113797    0.139056    1.974997
H     -3.368832    1.665022    0.551101
H     -4.796529    0.834595    2.445772
H     -3.519896   -0.270819    2.921738
H     -4.337074   -0.477040    1.350045
H     -2.069084    2.862159    1.947157
H     -2.700898   -1.982591    1.314903
H     -2.398014   -2.608274   -0.304425
H     -0.709471   -3.775884    0.804093
H      0.288827   -1.750271    2.377935
