43

C      5.956364   -1.201500   -1.573861
N      4.838904   -0.627930   -0.867704
C      3.550736   -1.059060   -1.106513
O      3.275292   -1.978794   -1.867542
C      2.514110   -0.266456   -0.333248
C      1.100247   -0.820151   -0.540514
C      0.002048   -0.035142    0.202305
C     -1.384200   -0.574406   -0.169200
C     -2.237921    0.128057   -1.036487
C     -3.497728   -0.377325   -1.384467
C     -3.928441   -1.601048   -0.877644
O     -5.127856   -2.204273   -1.135861
C     -6.017319   -1.518328   -2.007406
C     -3.086373   -2.313810   -0.024909
C     -1.828534   -1.812363    0.323013
O      0.104078    1.379243   -0.174134
C      0.204021    2.089028    0.992379
C      0.247821    3.466696    1.056103
C      0.372331    4.063384    2.316576
C      0.455889    3.277650    3.481706
C      0.415478    1.885093    3.400342
C      0.285479    1.333421    2.140832
C      0.233242   -0.039863    1.715956
O      0.384589   -0.986054    2.469129
H      5.837362   -2.284800   -1.660771
H      6.002497   -0.758824   -2.572277
H      6.871224   -0.969689   -1.023881
H      4.979619    0.239232   -0.366429
H      2.571620    0.773635   -0.673229
H      2.785034   -0.300910    0.727816
H      0.884557   -0.801644   -1.618004
H      1.081827   -1.876015   -0.239280
H     -1.933190    1.082743   -1.461367
H     -4.112776    0.211284   -2.056720
H     -6.920274   -2.127784   -2.110969
H     -6.314634   -0.551751   -1.587336
H     -5.580168   -1.399148   -3.004315
H     -3.409355   -3.273276    0.372449
H     -1.200957   -2.407687    0.985219
H      0.186195    4.069937    0.156432
H      0.405230    5.148219    2.397956
H      0.552661    3.761164    4.451752
H      0.481271    1.259246    4.284103
