22

C      2.511506   -1.133628    0.159981
N      1.783514   -0.309360   -0.792810
C      1.019539    0.752167   -0.135205
C      0.356783    1.680829   -1.177443
S     -0.941978    0.848560   -2.167144
C     -1.614541   -0.236448   -0.864018
C     -1.274899    0.280172    0.536487
C     -1.988413   -0.558759    1.593135
O      0.123056    0.197712    0.828588
H      3.112129   -1.868729   -0.384952
H      3.199802   -0.532440    0.762813
H      1.839523   -1.685496    0.824892
H      1.134019   -0.888534   -1.320982
H      1.726677    1.372586    0.429066
H      1.105653    2.084880   -1.867279
H     -0.113143    2.532536   -0.673669
H     -2.697987   -0.295592   -1.008029
H     -1.196500   -1.236622   -1.019293
H     -1.602853    1.319370    0.664755
H     -1.664936   -1.604686    1.546918
H     -1.742289   -0.197782    2.597795
H     -3.074662   -0.520737    1.466394
