48

C      4.320185   -0.551442   -0.909589
N      3.528162   -0.411367    0.308600
C      2.058750   -0.510136    0.133600
C      1.647050   -1.814421   -0.611973
C      0.318230   -2.521858   -0.236186
C     -0.964767   -1.700660    0.057943
C     -1.370452   -0.876695   -1.190600
C     -2.057379    0.500430   -0.989573
C     -3.468114    0.436683   -1.570260
F     -4.183026   -0.555960   -0.990402
F     -3.447545    0.202030   -2.900978
F     -4.144100    1.587941   -1.365120
C     -1.268857    1.659529   -1.634641
C     -0.385277    2.513579   -0.698897
C      0.722228    1.874369    0.191889
C      0.441628    1.739644    1.720617
S     -1.255550    2.024640    2.371853
C     -1.619740    0.395522    3.135246
C     -1.909785   -0.728604    2.127263
N     -0.733842   -0.960350    1.287497
C      1.527175    0.771550   -0.564971
H      5.371706   -0.364153   -0.668479
H      4.039103    0.165906   -1.684860
H      4.260916   -1.561145   -1.326151
H      3.829832   -1.130307    0.966918
H      1.697297   -0.587153    1.152825
H      2.419629   -2.577779   -0.442160
H      1.661243   -1.637993   -1.695386
H      0.523351   -3.156756    0.638481
H      0.089326   -3.231746   -1.043384
H     -1.758535   -2.437444    0.244344
H     -0.521015   -0.770092   -1.867698
H     -2.044502   -1.530263   -1.763961
H     -2.189728    0.747591    0.054797
H     -1.980500    2.367342   -2.082542
H     -0.680550    1.305242   -2.489043
H      0.131714    3.217785   -1.369264
H     -1.032685    3.162989   -0.100473
H      1.465595    2.692394    0.218127
H      1.012594    2.544138    2.205590
H      0.866292    0.846406    2.173037
H     -2.503533    0.531747    3.767863
H     -0.793254    0.123828    3.801450
H     -2.140980   -1.648197    2.678777
H     -2.808661   -0.488832    1.551069
H     -0.059180   -1.455383    1.873192
H      1.006083    0.481863   -1.474285
H      2.383468    1.315586   -0.990104
