57

C     -4.560157   -4.713189    0.513353
N     -4.318139   -3.473482    1.237046
C     -3.922678   -2.395870    0.321894
C     -3.698704   -1.064801    1.059925
C     -2.514886   -1.097554    1.989437
C     -1.377264   -0.386200    1.916714
C     -0.972817    0.624144    0.861598
C     -0.872380    2.029532    1.495189
C     -0.446509    3.154428    0.541353
C     -1.367586    3.367211   -0.636895
C     -2.724532    3.663343   -0.446449
C     -3.568803    3.862589   -1.540233
C     -3.064766    3.777085   -2.836023
C     -1.715201    3.497564   -3.038789
C     -0.870117    3.297718   -1.945620
C      0.271600    0.145401    0.091308
C      1.590044    0.103507    0.855634
O      1.704691    0.481400    2.014618
N      2.606566   -0.392217    0.058668
C      3.969553   -0.575160    0.382054
C      4.519615   -0.256022    1.624887
C      5.878732   -0.465606    1.867337
C      6.694631   -0.993993    0.870544
C      6.157228   -1.317426   -0.376784
C      4.797258   -1.112050   -0.629059
O      4.165894   -1.393567   -1.820335
C      4.961257   -1.966276   -2.851473
H     -4.843138   -5.498814    1.220699
H     -3.658490   -5.049535   -0.008550
H     -5.373747   -4.603458   -0.210991
H     -5.162532   -3.200777    1.738812
H     -4.711552   -2.243567   -0.425083
H     -3.006057   -2.673555   -0.213155
H     -4.591174   -0.812445    1.646696
H     -3.601536   -0.271332    0.313408
H     -2.618469   -1.789288    2.826580
H     -0.643670   -0.546993    2.709540
H     -1.768104    0.676746    0.110497
H     -0.173012    2.019698    2.339672
H     -1.845991    2.282153    1.937048
H      0.577632    2.971482    0.194889
H     -0.402303    4.096456    1.103390
H     -3.134487    3.744605    0.557692
H     -4.619362    4.089642   -1.379261
H     -3.721808    3.935554   -3.686820
H     -1.318476    3.440074   -4.048899
H      0.182305    3.089386   -2.124078
H      0.081664   -0.866853   -0.291991
H      0.425077    0.785471   -0.785449
H      2.375373   -0.683599   -0.886297
H      3.916271    0.156839    2.426824
H      6.296802   -0.214336    2.839113
H      7.752090   -1.154621    1.065569
H      6.826761   -1.725621   -1.125839
H      5.371425   -2.933685   -2.543394
H      5.753977   -1.279359   -3.165575
H      4.312001   -2.140777   -3.714947
