44

C     -7.751349    2.514668    0.565831
O     -6.451873    2.092462    0.149375
C     -6.057392    0.913269    0.690494
O     -6.709988    0.223787    1.458059
C     -4.693238    0.549926    0.222640
C     -4.019113    1.278106   -0.767965
C     -2.740328    0.891346   -1.174342
C     -2.131503   -0.222446   -0.596115
C     -2.802592   -0.952484    0.383954
N     -2.159837   -2.055930    1.011423
S     -1.145668   -1.729278    2.329539
O     -0.953380   -2.996260    3.004278
O     -1.634904   -0.568978    3.040771
C      0.391051   -1.319044    1.542088
C      0.801814    0.011837    1.462358
C      2.018454    0.326969    0.846284
C      2.835137   -0.680631    0.324718
N      4.073075   -0.451182   -0.312974
C      4.715940    0.762991   -0.522954
O      4.277620    1.843001   -0.137695
C      5.985106    0.641383   -1.246010
C      6.474516   -0.379834   -2.045426
C      7.774332   -0.099777   -2.564129
C      8.238054    1.128529   -2.155337
S      7.111157    1.939566   -1.161841
C      2.414908   -2.015716    0.430112
C      1.198779   -2.339090    1.038573
C     -4.076247   -0.567933    0.800580
H     -7.968011    3.470789    0.081451
H     -7.777891    2.661822    1.650120
H     -8.508496    1.788608    0.253505
H     -4.477313    2.149094   -1.231046
H     -2.218023    1.459481   -1.940786
H     -1.139311   -0.518091   -0.926299
H     -2.733226   -2.875772    1.212383
H      0.186224    0.811848    1.869603
H      2.297895    1.375313    0.799012
H      4.568312   -1.279402   -0.608365
H      5.933772   -1.288695   -2.276443
H      8.336850   -0.762659   -3.210792
H      9.182879    1.596037   -2.397825
H      3.028883   -2.825651    0.043269
H      0.891824   -3.379698    1.117964
H     -4.586902   -1.122285    1.584951
