35

C      4.316393   -0.764201    1.007323
O      2.953245   -0.380054    1.189274
C      2.427169    0.313748    0.139726
O      3.034983    0.600892   -0.881982
C      0.973315    0.655341    0.425453
C      0.486345    1.875060   -0.377563
C     -0.889556    1.517912   -0.937860
C     -1.387189    0.314063   -0.109354
C     -2.000659    0.834714    1.218134
C     -2.468509   -0.492416   -0.878518
N     -3.693766    0.265311   -1.128604
C     -0.043640   -0.487787    0.127310
C     -0.127771   -1.472321    1.308057
C      0.382796   -1.306791   -1.117174
H      4.952257    0.119461    0.894666
H      4.415137   -1.427384    0.142225
H      4.636468   -1.309505    1.899445
H      0.928784    0.940269    1.486109
H      1.159688    2.172913   -1.187543
H      0.401809    2.740188    0.291594
H     -0.788013    1.248576   -1.996288
H     -1.567893    2.377174   -0.894337
H     -2.804487    1.555961    1.031712
H     -1.267270    1.345011    1.849605
H     -2.430035    0.013907    1.803057
H     -2.090742   -0.820885   -1.852100
H     -2.730315   -1.392784   -0.311819
H     -4.346630   -0.314134   -1.655208
H     -3.487443    1.068294   -1.721342
H     -0.290109   -0.960739    2.262091
H      0.798678   -2.048138    1.411104
H     -0.944208   -2.188500    1.166930
H      0.481395   -0.683417   -2.011126
H     -0.335825   -2.103954   -1.335958
H      1.345597   -1.805783   -0.958153
