47

C     -7.238585    1.776775   -2.500332
O     -6.809822    1.874096   -1.141531
C     -5.996167    0.854210   -0.743349
O     -5.660890   -0.092463   -1.445742
C     -5.587022    1.041768    0.722355
C     -6.735425    0.635528    1.633561
N     -4.404886    0.237984    1.009230
C     -3.142983    0.709478    0.724133
O     -2.854561    1.862833    0.433719
C     -2.039794   -0.371222    0.774634
O     -2.357149   -1.520890    1.040527
N     -0.797679    0.157102    0.494944
C      0.437709   -0.512599    0.449953
C      0.590191   -1.875169    0.701610
C      1.851616   -2.476182    0.640431
O      1.856965   -3.818594    0.909879
C      3.112346   -4.484583    0.853522
C      2.969799   -1.702695    0.323983
C      2.845142   -0.328293    0.065634
C      4.013755    0.486498   -0.266913
C      4.212757    1.819895   -0.572477
C      5.602451    1.985614   -0.800523
C      6.172715    0.745153   -0.621293
O      7.393935    0.225094   -0.682956
C      8.426851    1.139854   -1.018286
O      5.216247   -0.164057   -0.298567
C      1.568478    0.251687    0.133294
H     -7.866931    2.644292   -2.720178
H     -6.378155    1.792277   -3.176627
H     -7.834192    0.870785   -2.649527
H     -5.329813    2.096323    0.874720
H     -7.624131    1.247038    1.445344
H     -6.457189    0.751908    2.686440
H     -7.015440   -0.412482    1.476552
H     -4.486025   -0.777660    0.982647
H     -0.806757    1.155015    0.295544
H     -0.258543   -2.505332    0.950290
H      3.542432   -4.432313   -0.152139
H      2.941241   -5.539823    1.087294
H      3.804509   -4.086069    1.602590
H      3.956468   -2.153258    0.272408
H      3.452738    2.585890   -0.626724
H      6.116602    2.898270   -1.062536
H      9.373739    0.592123   -1.036407
H      8.507316    1.933025   -0.267098
H      8.263229    1.568879   -2.012799
H      1.452904    1.314290   -0.063571
