44

C      5.205598    1.247726    0.680360
O      4.290930    0.371423    0.019210
C      4.856421   -0.385437   -0.964690
O      6.040794   -0.344704   -1.278035
C      3.850756   -1.316885   -1.631494
N      2.497385   -1.144710   -1.115833
C      1.650753   -0.247751   -1.748704
O      2.006763    0.467337   -2.683214
C      0.189191   -0.380615   -1.350872
N      0.047717   -0.536237    0.084760
C     -0.829748    0.345072    0.773271
C     -0.217719    1.249536    1.661880
C     -0.948775    2.249995    2.287015
C     -2.305502    2.365751    2.027605
C     -2.957463    1.463633    1.167478
C     -4.448243    1.643781    1.003197
C     -2.230514    0.399428    0.549739
C     -3.027596   -0.676156   -0.200973
C     -3.214141   -0.366643   -1.687772
C     -2.569137   -2.123022    0.021129
C      0.928139   -1.355086    0.788947
O      0.875307   -1.600186    1.987273
C      2.102196   -1.920017   -0.032945
O      2.645753   -2.964199    0.301232
H      5.995411    0.674260    1.175452
H      4.651005    1.802602    1.442109
H      5.630832    1.964060   -0.029454
H      4.187303   -2.344047   -1.458873
H      3.864893   -1.111421   -2.706774
H     -0.336684    0.516506   -1.693693
H     -0.206216   -1.269756   -1.850813
H      0.851285    1.197658    1.857588
H     -0.459123    2.942719    2.965835
H     -2.865300    3.158701    2.520610
H     -4.986336    0.903926    1.603917
H     -4.744297    1.556767   -0.045683
H     -4.768335    2.638996    1.331608
H     -4.035363   -0.679381    0.232976
H     -2.301250   -0.514567   -2.265689
H     -3.974764   -1.027415   -2.118846
H     -3.541698    0.665322   -1.848830
H     -2.384436   -2.321201    1.082500
H     -1.667678   -2.377787   -0.538550
H     -3.348115   -2.817973   -0.313954
