55

C     -5.840281    6.160341   -0.011182
O     -4.933547    5.393556   -0.804876
C     -4.484068    4.269362   -0.196117
O     -4.787851    3.887265    0.924595
C     -3.547213    3.527650   -1.078559
C     -3.203096    3.959896   -2.369344
C     -2.316348    3.230261   -3.158653
C     -1.746893    2.043354   -2.683628
C     -2.072447    1.574467   -1.392471
C     -2.962162    2.330978   -0.621743
N     -3.106227    1.678592    0.585259
C     -2.351129    0.545074    0.608432
C     -1.687662    0.434514   -0.610883
C     -0.855726   -0.687486   -0.752607
C     -0.137732   -0.935865   -1.999763
C      1.192500   -1.043365   -2.133489
S      1.939288   -1.445572   -3.627300
C      3.516769   -1.698029   -2.874303
S      4.730555   -2.448426   -3.751521
N      3.481357   -1.277245   -1.549769
C      4.613502   -1.236671   -0.667553
C      5.883732   -0.834530   -1.106324
C      6.974004   -0.799663   -0.229595
C      6.811167   -1.157069    1.104845
C      5.556672   -1.540768    1.565854
C      4.468041   -1.575224    0.688888
C      2.235127   -0.851246   -1.083337
O      1.991643   -0.313073   -0.009976
C     -0.770158   -1.591762    0.297991
O     -0.055002   -2.750913    0.366430
C     -0.285462   -3.274772    1.605080
C      0.266298   -4.458344    2.091395
C     -0.096496   -4.830958    3.390347
C     -0.969394   -4.048257    4.151128
C     -1.510266   -2.861927    3.635985
C     -1.157193   -2.467520    2.332339
C     -1.472260   -1.382634    1.476858
N     -2.281520   -0.306060    1.649926
H     -5.352318    6.500368    0.907663
H     -6.138146    7.038618   -0.590504
H     -6.736933    5.576167    0.218487
H     -3.624947    4.878280   -2.772652
H     -2.060991    3.586734   -4.154435
H     -1.053483    1.495143   -3.315095
H     -3.689717    2.001206    1.347182
H     -0.784177   -1.066872   -2.865311
H      6.052094   -0.493983   -2.124041
H      7.948858   -0.481109   -0.590982
H      7.657488   -1.126894    1.786122
H      5.418567   -1.812721    2.609418
H      3.506280   -1.892537    1.088197
H      0.940510   -5.055999    1.490078
H      0.308631   -5.747459    3.814919
H     -1.234473   -4.361997    5.158847
H     -2.187766   -2.254877    4.229747
