56

C      8.204664   -0.820878   -0.265560
O      6.964154   -0.296657    0.208438
C      5.926532   -0.494617   -0.640805
O      5.967776   -1.055147   -1.723506
C      4.714576    0.090765   -0.032816
C      3.557628    0.087142   -0.713480
C      2.283270    0.648624   -0.256008
C      1.193381    0.675281   -1.083531
C      0.102550    1.721699   -0.863434
N      0.481203    2.758007    0.079067
C      0.483878    2.446298    1.418255
O      0.229337    3.285807    2.270762
N      0.713881    1.116994    1.647593
C     -0.238799    0.335051    2.462378
C     -1.419820   -0.340451    1.593234
C     -1.049776   -0.446774    0.068028
C      0.080486   -1.595649    0.165563
C      0.965241   -1.743672   -1.067496
N      0.783113   -0.525199   -1.836358
C     -0.558076   -0.642515   -2.379514
O     -0.844085   -0.467980   -3.555181
C     -1.629340   -0.911281   -1.259884
C     -2.925010   -0.912535   -1.614445
C     -3.912557   -0.225389   -0.782774
O     -5.142547   -0.843815   -0.713243
C     -5.077852   -2.123701   -0.085565
C     -3.662722    1.022586   -0.285371
O     -4.515078    1.859825    0.393595
C     -5.861495    1.462494    0.604660
C     -2.358065    1.685889   -0.468063
C     -1.146067    1.073697   -0.339661
C      1.949652    0.634645    1.270878
O      2.686412    0.051843    2.066325
H      8.495012   -0.332655   -1.201193
H      8.137193   -1.905253   -0.398430
H      8.970637   -0.611397    0.486218
H      4.821164    0.506891    0.961661
H      3.557893   -0.310306   -1.730416
H     -0.081920    2.227283   -1.819505
H      0.140324    3.695728   -0.091541
H     -0.695531    0.986789    3.215655
H      0.306492   -0.457324    2.986774
H     -1.642705   -1.329572    2.015250
H     -2.329675    0.237654    1.782882
H      0.729433   -1.502633    1.037071
H     -0.419388   -2.562422    0.340003
H      0.635924   -2.602746   -1.669455
H      2.008987   -1.945917   -0.817468
H     -3.231674   -1.104375   -2.640853
H     -4.551035   -2.068296    0.873696
H     -6.102679   -2.454295    0.107447
H     -4.603805   -2.860666   -0.741793
H     -5.914411    0.571901    1.238098
H     -6.367555    2.273610    1.137301
H     -6.384916    1.317210   -0.345341
H     -2.424210    2.720405   -0.801097
