33

C      5.746246    1.844010   -0.587338
O      4.479139    1.219381   -0.795903
C      4.346892    0.006793   -0.179823
O      5.219087   -0.526180    0.495470
C      2.963620   -0.569217   -0.442700
C      3.004780   -2.093372   -0.379468
S      1.822132    0.106413    0.819644
C      0.292133   -0.146520    0.058568
N      0.092564   -0.608606   -1.150864
N     -1.261050   -0.625080   -1.371155
C     -1.869256   -0.138423   -0.303509
C     -3.310732    0.037351   -0.176358
C     -4.184289   -0.970757   -0.595998
C     -5.562074   -0.791504   -0.478351
C     -6.016957    0.402344    0.052971
Cl    -7.693751    0.700552    0.244346
N     -5.215220    1.408913    0.456939
C     -3.883591    1.207599    0.315490
N     -0.909570    0.128461    0.652970
C     -1.127436    0.545365    2.015452
H      5.906502    2.039502    0.477565
H      6.550949    1.223797   -0.994346
H      5.743987    2.800068   -1.118057
H      2.659864   -0.260908   -1.449819
H      3.732646   -2.483535   -1.100282
H      3.308715   -2.455059    0.609781
H      2.033940   -2.536983   -0.622523
H     -3.793994   -1.895144   -1.018386
H     -6.252796   -1.563880   -0.796798
H     -3.274230    2.057308    0.612542
H     -1.023960    1.632089    2.062796
H     -0.399617    0.062116    2.671619
H     -2.124667    0.243106    2.342842
