52

C      7.339701   -3.015659   -0.889840
O      6.237110   -2.270911   -0.369946
C      5.436391   -1.734957   -1.325610
O      5.593367   -1.844999   -2.531412
C      4.314545   -0.976788   -0.706890
C      3.382869   -0.365289   -1.553890
C      2.312264    0.358078   -1.021180
C      2.149545    0.483778    0.368883
C      1.003428    1.276113    0.965824
C      1.019962    2.763349    0.641740
C      2.043208    3.681756    0.830377
C      1.809917    5.011970    0.472200
C      0.569752    5.409206   -0.057438
C     -0.462389    4.484129   -0.238381
C     -0.226007    3.167655    0.114376
C     -1.072059    1.984867    0.066060
C     -2.387359    1.838867   -0.109318
N     -2.991658    0.610878    0.040504
C     -2.260399   -0.343146    0.549612
N     -2.711541   -1.609063    0.803082
C     -3.951142   -2.181442    0.314890
C     -5.194687   -1.509135    0.905910
C     -6.384383   -2.152366    0.205240
S     -5.825201   -2.517917   -1.453145
O     -6.401452   -1.558553   -2.370915
O     -5.940470   -3.947690   -1.660860
C     -4.103774   -2.130856   -1.199650
O     -0.926185   -0.229532    0.916457
N     -0.285158    0.890718    0.372092
C      3.089923   -0.130765    1.211658
C      4.162331   -0.855446    0.680167
H      7.903632   -3.420340   -0.044814
H      6.985465   -3.851472   -1.501425
H      8.001886   -2.363870   -1.468342
H      3.484127   -0.448577   -2.634776
H      1.598403    0.824201   -1.699665
H      0.956507    1.156105    2.056098
H      3.003267    3.381238    1.238244
H      2.597105    5.751685    0.603230
H      0.412600    6.450701   -0.329775
H     -1.417144    4.797303   -0.647115
H     -3.037336    2.679584   -0.324393
H     -1.962000   -2.266916    0.988884
H     -3.964217   -3.234144    0.629543
H     -5.203382   -0.432237    0.707781
H     -5.254569   -1.637071    1.991870
H     -7.252780   -1.491436    0.166687
H     -6.656178   -3.098485    0.682243
H     -3.920918   -1.141852   -1.625708
H     -3.480584   -2.869317   -1.709579
H      2.994641   -0.052148    2.293310
H      4.871025   -1.319801    1.361901
