43

C     -7.406551   -1.560097   -1.342277
O     -6.430248   -0.621757   -0.890887
C     -5.183225   -1.146612   -0.749200
O     -4.894739   -2.312847   -0.986136
N     -4.284323   -0.211699   -0.310111
C     -4.584123    1.171372    0.001768
C     -3.217985    1.827541    0.129700
C     -2.347896    0.701036    0.690427
N     -0.932273    0.926414    0.463108
C      0.002920    0.145006    1.112718
O     -0.292560   -0.700435    1.948051
C      1.422724    0.345394    0.718579
C      1.890205    1.575693    0.249797
C      3.232367    1.713386   -0.115344
Cl     3.747171    3.250967   -0.718920
C      4.123262    0.633147   -0.014900
O      5.414065    0.848235   -0.435863
C      6.013263   -0.281903   -1.069925
C      6.664090   -1.192575   -0.043821
C      5.761821   -1.413400    1.157515
O      4.424730   -1.698004    0.744086
C      3.660392   -0.579247    0.521508
C      2.311995   -0.724798    0.861856
C     -2.904166   -0.546947   -0.011479
H     -7.513716   -2.379085   -0.624044
H     -8.365653   -1.040278   -1.418236
H     -7.142074   -1.943229   -2.332891
H     -5.202453    1.628452   -0.776199
H     -5.129689    1.192347    0.951591
H     -3.233718    2.713676    0.771107
H     -2.858047    2.136281   -0.860131
H     -2.520414    0.612989    1.771376
H     -0.660101    1.382621   -0.398038
H      1.228925    2.434796    0.183322
H      6.781168    0.095360   -1.754655
H      5.287978   -0.819855   -1.695554
H      6.900928   -2.148279   -0.525198
H      7.609448   -0.761066    0.304491
H      5.790349   -0.564826    1.854602
H      6.121316   -2.280771    1.722569
H      1.959580   -1.676176    1.258359
H     -2.851265   -1.442279    0.616301
H     -2.393474   -0.753870   -0.959021
