32

C     -3.005835    2.117413   -0.979637
O     -1.942435    1.937926   -0.055090
C     -1.012033    0.927961   -0.466660
C      0.302973    1.249066    0.176955
C      0.671020    2.001162    1.271706
C      2.077713    1.914334    1.361038
C      2.518225    1.106949    0.320283
S      4.162896    0.578273   -0.134039
C      3.921075   -1.105347   -0.633175
O      4.929119    0.605246    1.095806
O      4.520783    1.376451   -1.288510
O      1.413610    0.706103   -0.403024
C     -1.501184   -0.459844   -0.110139
C     -1.527843   -1.472971   -1.084529
C     -1.971110   -2.759075   -0.763593
C     -2.389644   -3.052372    0.533314
C     -2.362586   -2.059663    1.510163
C     -1.920284   -0.779034    1.185942
F     -1.900501    0.147892    2.154068
H     -3.671067    2.892313   -0.589121
H     -3.582292    1.195432   -1.099083
H     -2.620085    2.449596   -1.948279
H     -0.867100    1.009152   -1.552920
H     -0.006780    2.541299    1.919734
H      2.721065    2.376092    2.098409
H      4.894256   -1.519070   -0.906128
H      3.500496   -1.667539    0.202724
H      3.253294   -1.131385   -1.496205
H     -1.200813   -1.267564   -2.102050
H     -1.988793   -3.533849   -1.526851
H     -2.734261   -4.052627    0.783149
H     -2.681880   -2.272320    2.525741
