26

C      5.322683   -0.271533   -0.589492
O      4.155716   -0.728070    0.095968
C      3.008328   -0.100833   -0.284985
O      2.927662    0.743880   -1.167717
C      1.834090   -0.644703    0.470371
C      0.928044    0.451602    0.964887
O      1.378568    1.458809    1.515596
C     -0.540949    0.304951    0.783669
C     -1.267465    1.417022    0.567900
C     -2.691295    1.346811    0.367806
F     -3.355379    2.499747    0.154730
C     -3.331038    0.167520    0.388141
C     -4.805641    0.016228    0.186147
N     -2.602723   -0.984243    0.611274
C     -1.241783   -1.011608    0.826509
O     -0.650318   -2.061801    1.049808
H      5.476447    0.798321   -0.416724
H      6.184104   -0.813691   -0.189799
H      5.244880   -0.485149   -1.660068
H      1.317838   -1.319528   -0.217876
H      2.165888   -1.219277    1.341580
H     -0.812350    2.402697    0.531211
H     -5.299301    0.979070    0.019067
H     -5.265602   -0.446132    1.065814
H     -5.008169   -0.617703   -0.683484
H     -3.072233   -1.882385    0.645138
