44

C      5.960105    2.675705    0.577123
O      4.975575    1.649552    0.710789
C      4.470591    1.194035   -0.477203
O      4.833766    1.631560   -1.567623
C      3.405669    0.051210   -0.258754
C      4.056760   -1.322468   -0.450895
C      2.101306    0.208046   -1.091762
C      1.244739    0.110774    0.186645
C      0.319245   -1.140842    0.333063
O      0.793152   -2.289028    0.313263
C     -1.208123   -0.947031    0.488834
C     -1.844705   -2.300897    0.848275
C     -1.500292    0.056749    1.608482
S     -1.821374   -0.373684   -1.159237
O     -1.271106    1.004136   -1.388695
C     -3.578660   -0.136731   -0.818297
C     -4.072720    1.110746   -0.418025
C     -5.437880    1.286137   -0.177430
C     -6.313917    0.217347   -0.353204
Cl    -7.994077    0.430285   -0.055444
C     -5.837015   -1.022709   -0.773553
C     -4.471090   -1.197602   -1.013341
C      2.536623    0.133121    1.029982
H      6.293099    2.957605    1.580393
H      5.530083    3.559410    0.094385
H      6.825245    2.307000    0.016403
H      3.340609   -2.139468   -0.322873
H      4.863996   -1.471669    0.274491
H      4.484814   -1.411468   -1.455033
H      1.920390   -0.576703   -1.834745
H      2.001986    1.174181   -1.601227
H      0.690613    1.044881    0.336944
H     -1.738604   -3.029698    0.035669
H     -1.369347   -2.731154    1.738537
H     -2.911383   -2.209367    1.074959
H     -1.255479    1.086515    1.330238
H     -2.557310    0.047873    1.895795
H     -0.919653   -0.182726    2.507420
H     -3.397993    1.956347   -0.296705
H     -5.808725    2.257856    0.137619
H     -6.522199   -1.854261   -0.920967
H     -4.115438   -2.166610   -1.356427
H      2.653479   -0.704999    1.726109
H      2.645245    1.058043    1.609129
