36

C     -3.703065   -2.174628    0.492700
O     -2.507796   -1.406709    0.630040
C     -2.350612   -0.443096   -0.328338
O     -3.182202   -0.195651   -1.193669
C     -1.010476    0.306273   -0.138414
C      0.188746   -0.661327   -0.380910
N     -0.111408   -1.808373   -0.921664
N      0.855267   -2.730981   -1.132573
C      2.173530   -2.610088   -0.787094
O      2.980976   -3.518869   -0.943849
C      2.573231   -1.308038   -0.234461
C      3.925750   -1.082872    0.064423
C      4.334695    0.159916    0.535756
C      3.396060    1.173746    0.693701
C      2.046926    0.942225    0.396090
C      1.612105   -0.309681   -0.052218
C     -1.077368    0.976374    1.260209
C     -1.241972    2.481061    1.025279
C     -1.674548    2.622112   -0.422770
C     -0.953854    1.485971   -1.134983
H     -4.583352   -1.536949    0.619801
H     -3.709603   -2.934346    1.279128
H     -3.726131   -2.681206   -0.477294
H      0.557644   -3.620157   -1.522592
H      4.659342   -1.873910   -0.081606
H      5.382418    0.339585    0.764770
H      3.713450    2.153682    1.045233
H      1.372598    1.777673    0.516335
H     -1.941393    0.633352    1.842566
H     -0.207814    0.769163    1.890076
H     -0.293222    3.002054    1.189616
H     -1.972399    2.922244    1.711065
H     -1.415590    3.600494   -0.837985
H     -2.760489    2.498423   -0.505737
H     -1.423233    1.264937   -2.099682
H      0.073791    1.787598   -1.361293
