33

C     -2.032472    2.869909    0.733185
O     -1.472370    1.641164    1.197560
C     -1.476930    0.643843    0.270933
O     -1.933213    0.736329   -0.862567
C     -0.835113   -0.609416    0.833742
C     -1.884674   -1.737653    0.879623
C     -1.306704   -3.067024    0.407963
C     -0.673100   -2.947051   -0.980913
N      0.028305   -1.682235   -1.237725
C      0.420232   -0.999701    0.014211
C      1.388383    0.165682   -0.205682
C      1.404401    0.876319   -1.423325
C      2.264750    1.959661   -1.622056
C      3.125239    2.354330   -0.605154
Cl     4.181096    3.690321   -0.848008
C      3.134048    1.677052    0.608592
C      2.272253    0.592618    0.808015
Cl     2.349102   -0.184078    2.353002
H     -1.464339    3.251071   -0.121249
H     -3.086343    2.735232    0.470505
H     -1.968005    3.599764    1.544844
H     -0.528524   -0.398692    1.866112
H     -2.258183   -1.845757    1.905308
H     -2.760927   -1.494090    0.265573
H     -2.090961   -3.832452    0.391934
H     -0.553590   -3.408351    1.129620
H      0.028564   -3.776596   -1.124635
H     -1.449252   -3.068062   -1.746122
H     -0.620533   -1.066664   -1.738688
H      0.992501   -1.749326    0.577025
H      0.742177    0.596209   -2.240493
H      2.254346    2.485927   -2.573362
H      3.809834    1.991719    1.399545
