44

C     -0.385415   -0.531601   -2.757326
O     -1.423542   -0.170722   -1.853887
C     -1.086887    0.670511   -0.816634
C      0.178459    1.235535   -0.624318
C      0.421325    2.069460    0.474320
S      2.026413    2.803766    0.744810
C      3.091500    1.373647    0.795328
C      2.830221    0.292128    1.641666
C      3.688086   -0.812088    1.661941
C      4.825989   -0.843512    0.845234
C      5.710761   -2.045111    0.902359
C      7.003064   -2.037837    0.128587
O      5.374672   -3.021249    1.569523
C      5.095135    0.243516    0.006297
C      4.232030    1.345858   -0.014117
C     -0.614049    2.351098    1.367523
C     -1.882164    1.794853    1.179833
C     -2.129388    0.959554    0.089657
N     -3.379585    0.349176   -0.153916
C     -4.590449    0.625492    0.432676
O     -4.793049    1.567206    1.195510
N     -5.613051   -0.251501    0.072563
C     -5.420135   -1.574965   -0.503859
C     -6.967666    0.064496    0.492550
H     -0.013631    0.343923   -3.299657
H      0.426231   -1.053888   -2.239926
H     -0.809089   -1.222393   -3.492648
H      0.990678    1.041859   -1.316230
H      1.959959    0.294838    2.294663
H      3.464066   -1.646850    2.324840
H      7.615468   -1.179615    0.416979
H      6.799441   -2.029706   -0.945204
H      7.567580   -2.945355    0.364553
H      5.965879    0.261729   -0.642583
H      4.459087    2.184671   -0.669433
H     -0.447637    3.003316    2.222145
H     -2.656750    2.026108    1.904910
H     -3.403102   -0.187919   -1.009487
H     -5.980811   -2.305336    0.088050
H     -4.373406   -1.885116   -0.509458
H     -5.806450   -1.565910   -1.526807
H     -7.084135    1.126071    0.726977
H     -7.660947   -0.192709   -0.313853
H     -7.204709   -0.525430    1.382840
