29

C      3.935003   -2.056619    0.387921
O      3.420823   -0.753792    0.155230
C      2.057998   -0.601635    0.120342
C      1.141319   -1.637612    0.296203
C     -0.235384   -1.384510    0.244168
C     -0.732489   -0.094038    0.016281
N     -2.133217    0.138526   -0.039590
C     -3.108341   -0.899216    0.101954
C     -4.391393   -0.215183   -0.287980
O     -4.143652    1.171816   -0.075654
C     -2.783664    1.366523   -0.067455
O     -2.304148    2.488803   -0.064912
C      0.198433    0.938783   -0.163663
C      1.581684    0.700985   -0.109039
O      2.541499    1.670302   -0.278409
C      2.104718    3.017907   -0.393478
H      3.640250   -2.746150   -0.409951
H      3.629204   -2.432652    1.369766
H      5.027324   -1.991174    0.383170
H      1.461760   -2.657794    0.478617
H     -0.898855   -2.230116    0.398035
H     -3.135181   -1.213562    1.151413
H     -2.907447   -1.759887   -0.542810
H     -4.633711   -0.363789   -1.345817
H     -5.238960   -0.546993    0.318506
H     -0.151845    1.942730   -0.365356
H      1.534627    3.328293    0.488468
H      1.529490    3.167401   -1.312924
H      2.994155    3.652652   -0.453036
