42

C      5.667256    1.545898    1.318901
O      4.410085    1.043823    0.881164
C      4.312631   -0.317736    0.692850
C      5.326128   -1.236746    0.982540
C      5.116410   -2.599307    0.767679
C      3.893678   -3.047436    0.276729
C      2.875060   -2.136294   -0.013891
C      3.078295   -0.768044    0.169034
N      2.099832    0.226312   -0.076992
C      0.946890    0.243564   -0.845871
S      0.482796   -0.860229   -2.010324
N      0.209856    1.376373   -0.523792
C     -1.065894    1.793785   -1.086202
C     -1.239351    3.296260   -0.865363
N     -2.096977    1.024096   -0.441662
C     -3.389243    1.035557   -0.923847
O     -3.787409    1.804953   -1.789940
C     -4.309538    0.009868   -0.357769
C     -5.408003   -0.397126   -1.127466
C     -6.296562   -1.355156   -0.636145
C     -6.096449   -1.904702    0.629796
C     -5.011885   -1.487882    1.401174
Br    -4.754045   -2.222336    3.124891
C     -4.117645   -0.531639    0.919295
H      6.460311    1.308305    0.602207
H      5.911365    1.176312    2.320153
H      5.588383    2.635751    1.377643
H      6.287276   -0.928561    1.379094
H      5.904596   -3.313575    0.992906
H      3.724524   -4.110937    0.125190
H      1.926732   -2.535684   -0.352347
H      2.424125    1.144610    0.212087
H      0.422368    1.783141    0.375469
H     -1.084498    1.582369   -2.160722
H     -1.270933    3.538380    0.203379
H     -2.162261    3.672532   -1.315885
H     -0.403180    3.850052   -1.306518
H     -1.770814    0.149611   -0.057158
H     -5.570634    0.030695   -2.115576
H     -7.143974   -1.669880   -1.240567
H     -6.792849   -2.649522    1.006939
H     -3.296453   -0.199455    1.547058
