35

C      3.688592    2.625546    0.001963
O      4.205492    1.328532    0.271887
C      3.331227    0.281440    0.164671
C      3.869504   -0.962917    0.495599
C      3.087473   -2.114376    0.423817
C      1.754652   -2.026268    0.021589
C      1.189068   -0.786370   -0.305839
N     -0.151542   -0.637135   -0.745486
C     -0.197754   -0.865272   -2.199913
C     -1.148087   -1.418681    0.036246
C     -2.337635   -0.508314    0.431057
O     -1.807604    0.703296    0.994680
C     -3.243173   -0.177542   -0.761115
S     -4.952037    0.298188   -0.293001
C     -4.606593    1.796919    0.663199
C      1.996681    0.362330   -0.240185
H      3.363688    2.710979   -1.040208
H      2.877545    2.880252    0.692298
H      4.496904    3.346433    0.158189
H      4.907954   -1.034009    0.809713
H      3.518254   -3.079075    0.677504
H      1.168790   -2.938304   -0.045847
H     -1.203476   -0.675076   -2.585177
H      0.477512   -0.182608   -2.729191
H      0.069147   -1.897532   -2.456356
H     -0.705370   -1.762900    0.980364
H     -1.487244   -2.307468   -0.509227
H     -2.911436   -1.020128    1.212362
H     -0.955887    0.835650    0.524675
H     -3.354708   -1.057226   -1.402990
H     -2.827561    0.636568   -1.363709
H     -5.546460    2.328757    0.835542
H     -3.932621    2.460715    0.115770
H     -4.181077    1.543525    1.636811
H      1.547781    1.312070   -0.510278
