42

C      5.029970   -2.849659   -1.310556
O      4.662471   -1.849122   -0.370958
C      3.572547   -1.066192   -0.661489
C      2.827504   -1.155443   -1.840224
C      1.729446   -0.314338   -2.051465
Cl     0.856464   -0.504718   -3.532293
C      1.359597    0.638435   -1.092006
C      0.171575    1.560438   -1.258131
C     -1.114224    0.914212   -0.820310
C     -1.812401    1.156030    0.295789
C     -1.535449    2.063836    1.404571
O     -0.460742    2.836350    1.463407
N     -2.418429    2.058511    2.345332
C     -3.365369    1.129904    1.936495
O     -4.363880    0.841659    2.577704
N     -3.000967    0.585347    0.699787
C     -3.778695   -0.431415   -0.000863
C     -5.172350    0.076285   -0.376223
C     -3.864924   -1.731961    0.799944
C      2.111680    0.717312    0.095709
C      3.209811   -0.122638    0.318139
O      3.989359   -0.095245    1.447570
C      3.588128    0.760007    2.508069
H      5.334856   -2.402479   -2.261994
H      4.221493   -3.574689   -1.453315
H      5.891492   -3.388900   -0.905413
H      3.081529   -1.874140   -2.611802
H      0.362361    2.502025   -0.734868
H      0.074576    1.868288   -2.306434
H     -1.486886    0.185528   -1.533690
H     -0.516818    3.352065    2.286764
H     -3.274170   -0.676274   -0.940184
H     -5.787779    0.280853    0.505024
H     -5.701133   -0.664907   -0.985061
H     -5.103197    1.002331   -0.957286
H     -4.429459   -1.607031    1.729218
H     -2.864432   -2.090608    1.063992
H     -4.360198   -2.513019    0.213123
H      1.819325    1.454807    0.837830
H      3.646911    1.811897    2.209500
H      4.285052    0.611769    3.338712
H      2.585356    0.504891    2.866253
