44

C     -1.320761    3.875730   -0.576233
O     -1.160538    2.502311   -0.239451
C     -1.100789    1.668923   -1.302497
C     -0.943649    0.303948   -1.149808
C     -0.828650   -0.591654    0.067164
C     -2.038907   -1.590421    0.092670
C     -1.874422   -2.883046   -0.704708
C     -2.506083   -1.920555    1.519068
C      0.648318   -1.103532    0.291669
C      0.774013   -2.008966    1.534187
C      1.277081   -1.837603   -0.909603
C      1.577752    0.177963    0.630795
C      2.740990    0.665866    0.149083
C      2.726422    1.883851    1.034886
N      3.865214    1.884734    1.952226
C      1.502755    1.239443    1.727711
O     -0.940981   -0.296739   -2.377521
C     -1.080254    0.688538   -3.303485
C     -1.184565    1.918326   -2.693604
H     -1.324940    4.451588    0.356066
H     -0.481383    4.235206   -1.185316
H     -2.280830    4.048698   -1.082581
H     -1.027873    0.084750    0.914374
H     -2.893103   -1.063330   -0.362200
H     -1.152312   -3.561425   -0.241633
H     -1.567101   -2.692333   -1.736392
H     -2.828967   -3.420709   -0.748501
H     -2.631165   -1.010946    2.111136
H     -3.476736   -2.428099    1.496053
H     -1.815872   -2.582375    2.043449
H      1.827945   -2.206324    1.777390
H      0.299749   -2.980898    1.379130
H      0.326428   -1.539537    2.418657
H      2.293481   -2.175486   -0.671239
H      0.714689   -2.727010   -1.197289
H      1.367583   -1.193689   -1.789148
H      3.403163    0.356542   -0.654009
H      2.534490    2.842722    0.548833
H      4.752364    2.021571    1.468743
H      3.968133    1.004148    2.460503
H      1.653893    0.866676    2.751779
H      0.605441    1.872425    1.734156
H     -1.087744    0.357995   -4.333509
H     -1.312279    2.862721   -3.201000
