40

C      6.665976   -1.020598    0.790626
O      6.318873    0.343369    0.997383
C      5.149293    0.779759    0.439331
C      4.832504    2.107780    0.722778
C      3.673334    2.684546    0.205865
C      2.812254    1.929590   -0.595405
Cl     1.424241    2.746471   -1.238024
C      3.093008    0.574767   -0.873509
N      2.291846   -0.252078   -1.719842
N      0.924255   -0.239053   -1.357414
C      0.413399   -1.365309   -0.729347
O      1.098052   -2.379571   -0.591808
C     -0.946021   -1.245481   -0.246721
C     -1.613242   -2.112189    0.604449
C     -2.926880   -1.619962    0.820096
C     -4.026155   -2.059783    1.577345
C     -5.208699   -1.309404    1.557812
C     -5.315222   -0.140017    0.802168
O     -6.536095    0.476481    0.888736
C     -6.709728    1.671698    0.139045
C     -4.229559    0.309914    0.041509
C     -3.050573   -0.451963    0.074151
N     -1.848663   -0.254833   -0.567797
C      4.289253    0.026331   -0.364713
H      5.905213   -1.689691    1.206183
H      7.603274   -1.211105    1.322201
H      6.837515   -1.226137   -0.271065
H      5.499891    2.700574    1.344425
H      3.454649    3.726659    0.424325
H      2.623233   -1.226223   -1.686119
H      0.486556    0.673684   -1.325723
H     -1.184349   -3.010736    1.031966
H     -3.964602   -2.967555    2.169940
H     -6.060855   -1.647446    2.143317
H     -6.017908    2.451740    0.473658
H     -6.605086    1.483240   -0.934540
H     -7.727728    2.032185    0.315599
H     -4.274151    1.210232   -0.557896
H     -1.676562    0.506254   -1.208247
H      4.525458   -1.006143   -0.602363
