61

C      7.142325   -3.902974    0.813696
O      7.438475   -2.510901    0.837665
C      6.436855   -1.662043    0.459525
C      6.753665   -0.310680    0.511215
C      5.807196    0.658975    0.147499
C      4.492709    0.344321   -0.275602
C      3.460941    1.525844   -0.703297
N      2.000222    1.229854   -0.673446
C      1.460288    0.452086   -1.797349
C     -0.078770    0.364351   -1.750900
N     -0.591604   -0.066525   -0.447820
C     -1.838471   -0.685840   -0.427812
O     -2.412050   -1.012184   -1.472294
C     -2.479862   -1.010829    0.913935
S     -3.378596    0.432214    1.578765
C     -5.045818    0.027837    1.090021
C     -5.410963   -0.085351   -0.252788
C     -6.725780   -0.402233   -0.603922
C     -7.699800   -0.604315    0.382779
C     -9.112750   -0.950610   -0.003451
N     -9.794440    0.186420   -0.608607
C     -7.336004   -0.463998    1.727849
C     -6.019408   -0.148153    2.077512
C     -0.007761    0.651943    0.690493
C      1.530562    0.701734    0.618963
C      3.590067    2.935729    0.027072
C      3.351517    3.623415   -1.329720
C      3.838178    2.331230   -2.004907
C      4.228827   -1.039643   -0.330553
C      5.167247   -2.023821    0.031464
H      8.035440   -4.440905    1.146178
H      6.910036   -4.238979   -0.203282
H      6.329840   -4.147794    1.506586
H      7.746374    0.000156    0.829227
H      6.127591    1.698572    0.184179
H      1.714620    0.903963   -2.759194
H      1.854159   -0.565212   -1.815393
H     -0.517686    1.348236   -1.959253
H     -0.419802   -0.316548   -2.537910
H     -1.719825   -1.338835    1.629030
H     -3.152930   -1.865362    0.784112
H     -4.684776    0.078324   -1.044789
H     -6.990980   -0.482485   -1.656422
H     -9.099189   -1.788474   -0.711951
H     -9.674417   -1.289879    0.874792
H    -10.772408   -0.045461   -0.758724
H     -9.781372    0.966429    0.044775
H     -8.073538   -0.599174    2.515214
H     -5.762962   -0.044122    3.129515
H     -0.419189    1.668696    0.679246
H     -0.298605    0.191653    1.635904
H      1.904583   -0.312113    0.792363
H      1.885463    1.317825    1.452551
H      2.858487    3.195205    0.799529
H      4.577782    3.168325    0.440218
H      3.954989    4.514572   -1.521749
H      2.300329    3.862260   -1.530236
H      4.919426    2.349889   -2.203874
H      3.357757    2.088700   -2.954471
H      3.260908   -1.400465   -0.658346
H      4.862896   -3.062850   -0.041198
