38

C      5.340541   -0.135288   -0.890984
O      4.433856   -0.260964    0.195282
C      3.125600    0.095789   -0.017189
C      2.615853    0.543447   -1.237527
C      1.262786    0.889851   -1.370219
Cl     0.763364    1.383584   -2.953214
C      0.386463    0.809102   -0.275305
C     -1.106166    1.151560   -0.284428
N     -1.473832    2.281385   -1.138769
C     -2.044308   -0.035016   -0.519659
C     -1.705508   -1.051202   -1.436316
C     -2.551535   -2.137598   -1.667835
C     -3.762767   -2.230019   -0.996029
C     -4.133209   -1.230990   -0.099596
C     -3.295756   -0.126590    0.141394
C     -3.767437    0.923933    1.112601
C      0.916909    0.333526    0.948248
C      2.264979   -0.019643    1.086637
O      2.832237   -0.477322    2.249241
C      1.976046   -0.710844    3.358381
H      6.330595   -0.440217   -0.538016
H      5.062538   -0.800212   -1.715026
H      5.413476    0.904319   -1.227607
H      3.254332    0.625540   -2.111249
H     -1.299476    1.520279    0.730584
H     -0.810038    3.038248   -0.990766
H     -1.357311    1.993778   -2.110678
H     -0.771336   -1.017245   -1.989250
H     -2.261907   -2.908699   -2.376775
H     -4.423474   -3.073707   -1.175000
H     -5.091490   -1.314479    0.409248
H     -3.744862    1.916234    0.651913
H     -4.800326    0.743173    1.429830
H     -3.141233    0.917518    2.010355
H      0.240795    0.245021    1.795104
H      1.204432   -1.449309    3.116111
H      1.532498    0.223967    3.716393
H      2.584671   -1.120911    4.170115
