78

C     -6.083569    4.376986    2.672047
O     -5.034646    4.879029    1.854418
C     -4.103628    3.976637    1.418661
C     -4.096324    2.609235    1.689135
C     -3.081486    1.793606    1.172428
C     -2.059998    2.330115    0.370534
C     -0.927643    1.443928   -0.213923
C      0.008711    1.046659    0.934186
C      1.356001    0.857765    1.018091
C      1.779020    0.953986    2.458538
O      2.352235    1.966243    2.867777
N      1.426549    0.005384    3.383242
C      1.587403   -1.442902    3.270795
C      0.434347   -2.203772    2.624239
O      0.760472   -2.485077    1.262491
C     -0.346860   -2.986438    0.489577
C      0.260281   -3.874736   -0.599455
C     -0.579088   -4.262278   -1.814455
C     -1.815757   -3.442670   -2.147970
C     -1.641957   -1.933843   -2.398202
C     -0.898748   -1.067172   -1.305543
C     -1.197550   -1.787251    0.054484
C      0.613543   -1.001207   -1.678932
C      1.235414    0.161998   -2.483495
C      0.428012    0.700361   -3.627323
C     -0.861259    1.063709   -3.653535
C     -1.889861    1.026777   -2.566097
C     -1.562045    0.363801   -1.194510
S      1.922493    1.613166   -1.587006
C      2.388741    0.904457   -0.047654
C      3.672497    0.462281    0.051985
C      4.720019    0.552416   -1.055700
C      5.846267   -0.366120   -0.602821
C      5.821445   -0.221113    0.902040
C      4.332327   -0.222776    1.228575
C     -2.069305    3.710177    0.119936
C     -3.084726    4.519870    0.635090
H     -6.694897    3.650341    2.126553
H     -5.691207    3.947719    3.599829
H     -6.729075    5.218609    2.941636
H     -4.862603    2.143738    2.298652
H     -3.095645    0.731800    1.406646
H     -0.386258    2.150392   -0.840209
H     -0.520977    1.043623    1.890759
H      1.735077    0.357788    4.282230
H      2.535330   -1.656757    2.776872
H      1.671227   -1.786479    4.309148
H      0.319003   -3.170669    3.127767
H     -0.504566   -1.652795    2.728087
H     -0.959561   -3.628366    1.137186
H      1.213222   -3.455560   -0.942333
H      0.594209   -4.803952   -0.113525
H     -0.908084   -5.300955   -1.675236
H      0.077328   -4.287178   -2.694227
H     -2.259624   -3.869875   -3.058377
H     -2.575055   -3.611520   -1.374870
H     -1.168330   -1.798537   -3.378155
H     -2.667228   -1.560149   -2.512283
H     -1.184916   -1.055388    0.859158
H     -2.251118   -2.098783    0.056851
H      0.820951   -1.877773   -2.307998
H      1.224570   -1.182141   -0.795379
H      2.132385   -0.278202   -2.941762
H      0.994661    0.834172   -4.549991
H     -1.237927    1.460212   -4.597774
H     -2.231096    2.056864   -2.405682
H     -2.768032    0.521494   -2.989389
H     -2.564802    0.148570   -0.794148
H      5.091368    1.582195   -1.125911
H      4.357759    0.227647   -2.034547
H      6.811147   -0.084774   -1.035455
H      5.631679   -1.403250   -0.892379
H      6.356689   -1.029567    1.408724
H      6.278491    0.729904    1.202488
H      4.181738    0.270561    2.187789
H      3.987237   -1.259702    1.273985
H     -1.286429    4.168771   -0.480889
H     -3.077969    5.586743    0.424509
