42

C      5.637683    3.326849    0.296697
O      4.243361    3.490354    0.532104
C      3.502085    2.346595    0.655910
C      3.974956    1.044673    0.534331
C      3.101221   -0.040106    0.692322
C      1.742999    0.152836    0.973444
N      0.841155   -0.922850    1.125803
C      1.092700   -2.283416    1.029383
O      2.190663   -2.822542    0.915761
C     -0.175474   -3.136326    1.182681
N     -1.323069   -2.503720    0.534793
C     -2.413995   -2.058390    1.247518
O     -2.452986   -2.167063    2.475066
N     -3.467264   -1.529601    0.513844
F     -4.662954   -1.430467    1.210568
C     -3.489685   -1.052223   -0.822899
C     -2.342985   -0.665728   -1.541003
C     -2.447275   -0.209758   -2.860877
C     -3.697512   -0.122379   -3.461443
F     -3.794992    0.301633   -4.727620
C     -4.846214   -0.468107   -2.764864
C     -4.741528   -0.918165   -1.445666
C      1.255717    1.471164    1.093023
C     -0.185059    1.778719    1.408945
C      2.146558    2.550853    0.928269
H      6.082484    4.326886    0.235049
H      5.819888    2.817513   -0.653213
H      6.119772    2.800200    1.127507
H      5.018915    0.827657    0.323692
H      3.528286   -1.037306    0.600899
H     -0.114575   -0.692845    1.362695
H     -0.018187   -4.100776    0.685369
H     -0.357068   -3.303899    2.249462
H     -1.497739   -2.793213   -0.421599
H     -1.352956   -0.657172   -1.091020
H     -1.561764    0.091189   -3.416691
H     -5.820210   -0.386469   -3.246466
H     -5.652992   -1.186700   -0.911461
H     -0.845123    1.341783    0.652480
H     -0.375314    2.858947    1.420493
H     -0.447649    1.386188    2.395858
H      1.786129    3.575182    1.019001
