44

C      2.217043   -4.104006   -1.683257
O      1.107330   -3.216179   -1.836805
C      1.311186   -2.029180   -1.121695
C      1.922979   -1.030690   -1.792419
C      2.230962    0.363902   -1.526158
C      2.390684    1.019725   -0.373219
N      2.311557    0.601701    0.926937
C      1.611318    1.558052    1.614609
C      0.728642    1.351395    2.599968
C      0.346716    0.037757    3.088179
C     -0.086302   -1.031113    2.385995
C     -0.360176   -1.263398    0.889136
O     -0.567645   -0.058957    0.151488
C     -1.841342    0.464420    0.103853
C     -2.804594    0.253197    1.099824
C     -4.056866    0.861934    1.024988
C     -4.353120    1.703927   -0.039392
C     -3.401903    1.931043   -1.036604
Cl    -3.846570    3.024224   -2.302137
C     -2.142989    1.301859   -0.992817
C     -1.110947    1.539658   -2.062101
C      0.796376   -2.138836    0.304856
N      1.762937    2.759542    0.971470
C      2.248529    2.534671   -0.323063
O      2.404472    3.337589   -1.221484
H      2.366755   -4.371566   -0.631998
H      1.994889   -5.018601   -2.240621
H      3.131030   -3.664899   -2.096931
H      2.174833   -1.269143   -2.830762
H      2.229684    0.971817   -2.433913
H      2.067845   -0.348691    1.104335
H      0.198479    2.189755    3.043085
H      0.408342   -0.054805    4.173051
H     -0.305857   -1.921436    2.978592
H     -1.266512   -1.880748    0.807336
H     -2.604879   -0.365779    1.967267
H     -4.793349    0.691889    1.806102
H     -5.324872    2.189242   -0.085158
H     -0.553499    0.622632   -2.269864
H     -1.554885    1.825512   -3.019531
H     -0.421154    2.327424   -1.747698
H      1.673047   -2.149309    0.965551
H      0.439276   -3.174147    0.435534
H      1.322553    3.628614    1.225474
