49

C      5.821600    3.441450   -1.059939
O      6.203007    2.109557   -0.735064
C      5.237843    1.147191   -0.846999
C      5.637765   -0.131169   -0.443596
C      4.752157   -1.210401   -0.502543
C      3.453297   -1.015097   -0.961611
O      2.638462   -2.112516   -0.985780
C      1.244542   -1.813763   -0.986422
C      0.660748   -1.399538    0.385729
O      1.348971   -0.954685    1.299297
N     -0.707245   -1.587465    0.504868
C     -1.432555   -1.169158    1.702222
C     -2.568687   -2.146253    2.008497
C     -3.686787   -2.117010    0.965875
C     -3.896305   -0.744095    0.327222
C     -3.436873    0.389786    1.241243
S     -3.794986    2.009493    0.539220
C     -5.569751    2.113532    0.554263
O     -3.366488    2.009015   -0.845813
O     -3.310314    3.010232    1.470533
C     -1.935304    0.277717    1.563161
C      0.866326   -0.819690   -2.073119
C      1.708881    0.418816   -1.949216
O      1.327498    1.508294   -2.364263
C      3.059825    0.251624   -1.385814
C      3.942396    1.337967   -1.325921
H      5.555583    3.526965   -2.118624
H      5.005934    3.788130   -0.416704
H      6.685228    4.089075   -0.880626
H      6.648565   -0.285751   -0.072666
H      5.074377   -2.194779   -0.174426
H      0.755298   -2.766267   -1.230753
H     -1.238950   -1.834531   -0.320098
H     -0.724073   -1.201874    2.539068
H     -2.184856   -3.169763    2.098804
H     -2.994660   -1.890054    2.987527
H     -3.479180   -2.847089    0.174026
H     -4.617214   -2.447386    1.443880
H     -4.952496   -0.638358    0.058521
H     -3.342758   -0.700085   -0.619529
H     -4.000830    0.351503    2.182326
H     -5.925187    1.936435    1.570836
H     -5.850498    3.119254    0.233452
H     -5.983800    1.380140   -0.138153
H     -1.335191    0.814444    0.816947
H     -1.760584    0.803360    2.511574
H      1.060709   -1.243213   -3.065208
H     -0.189267   -0.536288   -2.009815
H      3.595828    2.308682   -1.666387
