54

C     -4.907340    4.273302   -1.356553
O     -5.074323    2.920967   -1.763574
C     -4.371310    1.976101   -1.070182
C     -4.581442    0.663761   -1.490492
C     -3.922945   -0.405238   -0.872537
C     -3.022319   -0.186536    0.179301
C     -2.267213   -1.333182    0.892002
C     -0.784899   -0.916406    1.141183
O     -0.299733   -0.903906    2.269613
N     -0.104949   -0.598424   -0.028942
C      1.243631   -0.216420   -0.169236
C      2.159112   -0.171295    0.883982
C      3.487058    0.217786    0.660906
C      3.915366    0.556234   -0.626577
C      5.314762    0.976663   -0.914730
O      5.567523    1.663583   -1.897635
N      6.288410    0.520592   -0.051331
C      7.702299    0.769718   -0.345652
C      8.653010    0.486753    0.812958
F      9.941404    0.645056    0.440480
F      8.504989   -0.786518    1.250653
F      8.420172    1.306850    1.860916
C      2.998638    0.525362   -1.681786
C      1.674383    0.136914   -1.454095
C     -2.194935   -2.684255    0.115919
C     -3.246745   -3.695940    0.566927
O     -4.457266   -3.037783    0.902647
C     -4.342799   -2.233721    2.077375
C     -2.962406   -1.600246    2.248188
C     -2.841240    1.143268    0.609520
C     -3.500261    2.211851   -0.011438
H     -3.869775    4.598887   -1.485165
H     -5.534004    4.896392   -2.001906
H     -5.243265    4.419470   -0.324613
H     -5.277107    0.465939   -2.303099
H     -4.158727   -1.407342   -1.222507
H     -0.664571   -0.562347   -0.874265
H      1.872539   -0.425501    1.899970
H      4.157727    0.275015    1.513670
H      6.068597   -0.264847    0.550648
H      7.813094    1.811430   -0.666261
H      7.964715    0.133577   -1.198278
H      3.311908    0.803584   -2.686543
H      0.987813    0.122783   -2.297340
H     -1.216897   -3.167469    0.246819
H     -2.277288   -2.519728   -0.964799
H     -2.896182   -4.282545    1.424999
H     -3.451343   -4.403854   -0.242868
H     -5.112003   -1.456959    2.010610
H     -4.587259   -2.850148    2.949649
H     -2.346262   -2.297050    2.834602
H     -3.041382   -0.697330    2.866673
H     -2.177857    1.370596    1.444279
H     -3.311104    3.212555    0.362825
