39

C     -6.123856   -1.607766    0.420752
O     -4.772819   -1.503000    0.852245
C     -4.152626   -0.290531    0.706424
C     -4.746909    0.847471    0.150876
C     -4.030134    2.045275    0.048679
C     -2.716960    2.122620    0.507171
C     -2.111182    0.997682    1.061337
C     -2.819924   -0.208188    1.141097
C     -2.184968   -1.390357    1.765752
N     -1.013052   -1.910018    1.538157
C     -0.255346   -1.425163    0.504484
C      1.020540   -1.029216    0.621618
N      1.752558   -1.000066    1.793114
N      2.913800   -0.551640    1.567891
C      3.023897   -0.251404    0.227000
C      4.276607    0.272873   -0.325159
C      5.490440   -0.333706    0.007312
C      6.660288    0.190393   -0.516790
N      6.701311    1.265766   -1.331186
C      5.521087    1.849414   -1.624568
C      4.299340    1.399164   -1.150974
C      1.886377   -0.535300   -0.421782
C      1.518745   -0.452119   -1.856847
H     -6.772589   -0.931340    0.986862
H     -6.208506   -1.430345   -0.656368
H     -6.458508   -2.631023    0.616567
H     -5.770083    0.840584   -0.211138
H     -4.505339    2.924430   -0.381242
H     -2.170423    3.060478    0.444351
H     -1.098729    1.071175    1.451321
H     -2.799065   -1.890974    2.535463
H     -0.736099   -1.410017   -0.471148
H      5.529099   -1.200311    0.660077
H      7.624283   -0.254327   -0.286406
H      5.584674    2.721661   -2.268975
H      3.391635    1.930614   -1.414605
H      2.368492   -0.181529   -2.489528
H      0.734692    0.296613   -2.009550
H      1.149255   -1.417877   -2.217871
