44

C      6.183638    1.280868   -2.338471
O      5.954971    0.255097   -1.383177
C      4.669591    0.073022   -0.937822
C      3.572881    0.828413   -1.359814
C      2.298230    0.567990   -0.847837
C      2.093034   -0.448981    0.093174
C      0.747643   -0.689666    0.603351
N     -0.382371   -0.079295    0.316594
C     -1.283406   -0.749005    1.104975
C     -2.737437   -0.407416    1.130220
C     -3.384775   -0.578746   -0.349831
C     -4.948390   -0.360052   -0.599788
C     -5.573237    1.114022   -0.698847
C     -5.358259    2.080501    0.541099
C     -4.158414    1.467501    1.130907
C     -2.959962    1.007672    1.849022
N     -0.761556   -1.728792    1.853666
O      0.594113   -1.692744    1.520903
C      3.197768   -1.206164    0.515032
C      4.480572   -0.953995    0.008635
O      5.607541   -1.650232    0.371839
C      5.466618   -2.693545    1.325161
H      7.251451    1.283126   -2.577718
H      5.635952    1.085985   -3.266356
H      5.933073    2.265033   -1.929155
H      3.672561    1.628125   -2.086087
H      1.457800    1.170245   -1.191807
H     -3.252701   -1.153813    1.753897
H     -2.831291    0.045744   -1.064324
H     -3.175477   -1.615752   -0.649814
H     -5.506258   -0.933430    0.151608
H     -5.172628   -0.837529   -1.563240
H     -5.128081    1.593156   -1.581106
H     -6.648007    1.032510   -0.898809
H     -5.214750    3.114358    0.211830
H     -6.223516    2.048329    1.212448
H     -4.728925    0.586503    1.451466
H     -3.584582    1.613898    0.206649
H     -2.105996    1.681987    1.714354
H     -3.116560    0.873321    2.924970
H      3.041435   -1.994927    1.244111
H      4.812586   -3.486848    0.948667
H      6.456023   -3.130373    1.491612
H      5.109101   -2.306102    2.284803
