49

C      8.576194   -1.697903   -1.004122
O      8.210170   -0.466443   -0.395861
C      6.874327   -0.206046   -0.243015
C      5.846500   -1.048615   -0.671028
C      4.502909   -0.697378   -0.472669
C      4.161886    0.498703    0.158092
N      2.834860    0.920194    0.387211
C      1.675271    0.219786    0.111081
O      1.583747   -0.918162   -0.331979
C      0.416073    0.946717    0.427364
C      0.273739    2.316271    0.160450
C     -0.927237    2.965609    0.456750
C     -1.991835    2.249059    1.003776
C     -1.857159    0.876066    1.236702
S     -3.211302   -0.027167    1.963137
O     -2.659463   -1.227488    2.559472
O     -3.972099    0.911856    2.764451
N     -4.152086   -0.487110    0.611796
C     -3.615415   -1.528331   -0.280276
C     -4.415266   -1.623510   -1.581205
C     -5.936641   -1.604967   -1.397908
C     -6.523545   -0.191196   -1.290374
C     -6.083281    0.588068   -0.055239
O     -4.660071    0.704744   -0.013788
C     -0.652407    0.222035    0.965807
C      5.186988    1.347172    0.585362
C      6.528304    0.997913    0.386816
Cl     7.737790    2.103616    0.944910
H      8.216650   -1.749564   -2.037027
H      8.219761   -2.550411   -0.416627
H      9.669105   -1.745883   -1.030024
H      6.047209   -1.992857   -1.167415
H      3.744778   -1.388681   -0.829589
H      2.731596    1.806128    0.866210
H      1.077961    2.883480   -0.301846
H     -1.037995    4.028736    0.253496
H     -2.925142    2.759330    1.236345
H     -3.669958   -2.488937    0.244163
H     -2.568462   -1.334501   -0.528631
H     -4.116418   -0.813852   -2.258811
H     -4.129915   -2.558211   -2.079845
H     -6.229164   -2.208251   -0.530498
H     -6.389023   -2.080439   -2.277274
H     -7.617669   -0.258472   -1.293839
H     -6.235134    0.371718   -2.186959
H     -6.465641    0.128429    0.864926
H     -6.491572    1.603087   -0.101317
H     -0.538820   -0.841852    1.168290
H      4.956902    2.287506    1.078683
