35

C     -1.867255   -0.956357    2.094581
O     -2.698438   -0.344448    1.117370
C     -2.140002   -0.353829   -0.210085
C     -3.286830   -0.001121   -1.171913
C     -3.389701    1.502746   -1.400970
C     -2.119668    2.064893   -2.040772
C     -0.866562    1.256852   -1.708478
C     -0.947811    0.631612   -0.315493
O      0.265146   -0.116391   -0.062041
C      1.327173    0.596782    0.392993
O      1.338430    1.802508    0.594639
C      2.510464   -0.283093    0.631842
C      2.484952   -1.602952    0.371953
N      3.590890   -2.388346    0.603395
C      4.781572   -1.916411    1.102362
O      5.752125   -2.635686    1.300284
C      4.823301   -0.461181    1.392157
C      3.738318    0.293611    1.162261
H     -2.436047   -1.030331    3.025582
H     -1.576759   -1.964791    1.785312
H     -0.981160   -0.346666    2.287957
H     -1.820681   -1.381206   -0.428857
H     -4.241460   -0.377236   -0.785582
H     -3.113416   -0.491211   -2.138294
H     -4.252628    1.732121   -2.036388
H     -3.567446    2.003716   -0.441040
H     -1.990831    3.103751   -1.713746
H     -2.236425    2.099473   -3.130701
H     -0.728282    0.461242   -2.452956
H      0.020095    1.894068   -1.805037
H     -1.060119    1.414223    0.446905
H      1.618477   -2.121505   -0.025958
H      3.564393   -3.381711    0.404155
H      5.749552   -0.063417    1.784998
H      3.756634    1.360290    1.369568
