51

C      6.453923   -1.404103   -0.186429
O      6.161633   -0.043200   -0.480983
C      4.863577    0.359655   -0.340856
C      4.640248    1.709260   -0.612857
C      3.360790    2.259648   -0.499161
C      2.274601    1.468328   -0.103328
N      1.008884    2.060838    0.045776
C      0.211559    1.737856    1.113936
N      0.093839    0.657430    1.809550
N      0.334891   -0.546978    1.166922
C      1.341381   -0.773258    0.396602
S      1.221682   -2.213078   -0.623329
C      0.133595   -3.312125    0.301184
C     -1.199291   -2.819358    0.838348
O     -1.545092   -3.159190    1.978956
N     -2.127061   -2.139240    0.119154
C     -2.121118   -1.563890   -1.196929
C     -2.183344   -2.639845   -2.277572
N     -3.292834   -0.710611   -1.299899
C     -3.500265    0.561311   -0.844272
O     -4.649138    1.001006   -0.874876
C     -2.322023    1.407033   -0.391509
C     -2.529657    2.210473    0.921579
C     -3.054251    1.326920    2.063325
C     -3.499647    3.386696    0.706748
S     -0.923321    3.030696    1.488330
C      2.496409    0.104551    0.128808
C      3.787940   -0.445495    0.026187
H      7.528469   -1.553657   -0.328975
H      5.929553   -2.076621   -0.873242
H      6.219385   -1.641545    0.856495
H      5.474541    2.342663   -0.908071
H      3.232715    3.319960   -0.704407
H      0.982850    3.052656   -0.159855
H      0.713671   -3.671934    1.159136
H     -0.074954   -4.186821   -0.323827
H     -2.925182   -1.901444    0.692365
H     -1.223291   -0.963877   -1.339153
H     -1.311372   -3.298626   -2.246578
H     -3.073966   -3.268525   -2.161099
H     -2.227039   -2.185193   -3.273352
H     -4.165839   -1.170868   -1.526548
H     -1.473926    0.741177   -0.289444
H     -2.083531    2.086279   -1.220033
H     -4.071273    0.975991    1.854284
H     -2.438914    0.435577    2.215062
H     -3.100108    1.874346    3.012089
H     -3.591648    4.007952    1.606324
H     -3.175296    4.031639   -0.118427
H     -4.510691    3.040955    0.471029
H      3.927932   -1.501414    0.232825
