51

C     -4.564500    1.834001    0.680941
O     -3.755153    0.804325    1.252276
C     -3.682365   -0.280611    0.414711
C     -4.659828   -1.293971    0.448200
C     -5.800830   -1.242943    1.409608
O     -6.065179   -0.380807    2.225116
O     -6.609384   -2.318785    1.301166
C     -4.540658   -2.383004   -0.432301
C     -3.460783   -2.476622   -1.309580
C     -2.474120   -1.494459   -1.303341
C     -2.559877   -0.392187   -0.434288
C     -1.424057    0.613069   -0.410332
N     -0.466102    0.373399    0.671599
C      0.349794   -0.828904    0.488772
C      1.530294   -0.623503    1.434184
C      1.515849    0.870725    1.769585
C      2.879687    1.552564    1.786952
C      3.626857    1.594031    0.415394
C      3.703140    2.532848   -0.582952
C      4.421116    1.598610   -1.374588
C      4.370179    1.004103   -2.568348
C      4.520257   -0.408038   -2.205611
C      4.426995   -1.481234   -3.229810
C      4.624737   -0.560089   -0.859979
C      4.772869    0.762367   -0.174690
C      0.503088    1.466147    0.796084
H     -5.576644    1.485474    0.451851
H     -4.101849    2.238865   -0.225389
H     -4.641523    2.643270    1.412693
H     -7.285702   -2.155657    1.992449
H     -5.283204   -3.177709   -0.437516
H     -3.378107   -3.327951   -1.981173
H     -1.619747   -1.598934   -1.969421
H     -0.920431    0.624264   -1.387427
H     -1.854227    1.616443   -0.303765
H     -0.196611   -1.743493    0.738523
H      0.721418   -0.914210   -0.540534
H      2.460704   -0.956709    0.968846
H      1.397385   -1.208118    2.352338
H      1.100966    0.966725    2.784716
H      3.527828    1.045870    2.512199
H      2.759894    2.583608    2.142253
H      3.205562    3.476002   -0.783778
H      3.828285    1.364454   -3.429485
H      4.476785   -2.474954   -2.772370
H      5.251473   -1.399696   -3.945132
H      3.482407   -1.411966   -3.779530
H      4.703950   -1.503013   -0.339294
H      5.766183    0.907113    0.265594
H      0.043352    2.371890    1.205730
H      0.949829    1.707399   -0.174908
