43

C      5.084841    3.044913   -0.837775
O      3.737662    2.597023   -0.753821
C      3.538444    1.279170   -0.444501
C      4.534391    0.336785   -0.205174
C      4.186600   -0.979556    0.099361
C      2.840513   -1.364939    0.153269
C      2.474463   -2.766337    0.547151
C      1.220061   -3.189565   -0.182879
C      0.106003   -2.192042    0.021337
O     -1.065551   -2.569633    0.086150
N      0.463606   -0.843054    0.012993
C     -0.625612    0.136526    0.062040
C     -1.237379    0.368347   -1.308370
S     -2.544620    1.563486   -1.255321
O     -2.025887    2.754014   -0.606391
O     -3.131257    1.646817   -2.579755
C     -3.779327    0.856642   -0.193420
C     -4.063350    1.450675    1.039155
C     -5.029784    0.879568    1.866700
C     -5.708046   -0.270619    1.459422
C     -5.428910   -0.850956    0.220815
C     -4.465442   -0.286061   -0.614032
C      1.825600   -0.423500   -0.077259
C      2.192771    0.896008   -0.374136
H      5.068076    4.109223   -1.091465
H      5.625881    2.521361   -1.632880
H      5.596157    2.939861    0.124791
H      5.587992    0.592731   -0.241838
H      4.974151   -1.703121    0.299832
H      2.319613   -2.795621    1.632636
H      3.284982   -3.463104    0.304531
H      0.892226   -4.166852    0.188011
H      1.397633   -3.277624   -1.261486
H     -1.389657   -0.252000    0.746351
H     -0.283152    1.065632    0.529173
H     -1.640774   -0.553373   -1.739110
H     -0.489342    0.754785   -2.008954
H     -3.546227    2.351754    1.361266
H     -5.258571    1.332283    2.828591
H     -6.461562   -0.713203    2.106846
H     -5.965837   -1.742742   -0.093965
H     -4.263391   -0.737237   -1.582710
H      1.452016    1.663533   -0.577629
