49

C      6.875290    2.047757    0.358835
O      6.255155    0.818465    0.715691
C      6.209347   -0.162558   -0.240232
C      6.879625   -0.108914   -1.467379
C      6.770236   -1.157668   -2.383802
C      5.985348   -2.265969   -2.085101
C      5.316358   -2.333056   -0.864538
C      5.431125   -1.291738    0.074280
C      4.670081   -1.392575    1.380518
C      3.251472   -0.934265    1.258758
N      2.245677   -1.700579    0.882446
N      1.049801   -1.013081    0.859325
C      1.192026    0.244258    1.221726
S     -0.142938    1.367386    1.295128
C     -1.365200    0.530001    0.224191
C     -1.017101    0.736956   -1.247680
C     -2.777179    1.061213    0.498361
O     -3.031206    2.124282    1.058168
N     -3.773183    0.234047    0.024247
C     -5.160815    0.547264    0.177865
C     -5.660900    0.295281    1.603975
C     -7.142897   -0.082855    1.633598
C     -7.871465    0.488758    0.426434
C     -7.211280    0.042458   -0.879288
O     -5.835581   -0.314578   -0.725302
S      2.794847    0.680895    1.636652
H      6.396257    2.494217   -0.518965
H      6.747674    2.740871    1.194597
H      7.950568    1.913581    0.200599
H      7.496826    0.739036   -1.744034
H      7.293678   -1.103374   -3.335098
H      5.891948   -3.076818   -2.802612
H      4.694026   -3.201165   -0.647325
H      4.673707   -2.440867    1.708859
H      5.192527   -0.851448    2.178639
H     -1.376205   -0.539670    0.464559
H     -0.024894    0.342298   -1.492559
H     -1.738449    0.224023   -1.894427
H     -1.043837    1.797880   -1.522235
H     -3.566215   -0.643074   -0.430366
H     -5.315588    1.593529   -0.117515
H     -5.091901   -0.509926    2.084445
H     -5.482913    1.191345    2.209983
H     -7.238229   -1.176906    1.622752
H     -7.602499    0.263625    2.565994
H     -8.929476    0.207409    0.428868
H     -7.845951    1.585349    0.488146
H     -7.724488   -0.840389   -1.274615
H     -7.293207    0.829291   -1.638180
