48

C     -6.099665   -1.463701    2.496115
O     -5.148354   -1.130016    1.491194
C     -5.414756   -0.029613    0.717387
C     -6.448285    0.881613    0.959487
C     -6.622437    1.991998    0.129094
C     -5.763137    2.204751   -0.944445
C     -4.728929    1.304521   -1.193286
C     -4.548674    0.176556   -0.374168
C     -3.413204   -0.771431   -0.665096
N     -2.309970   -0.558667    0.246642
C     -1.084865   -1.137156    0.027226
O     -0.817906   -1.778162   -0.986160
C     -0.090345   -0.958486    1.128362
S      1.267580    0.041895    0.594884
O      0.737483    1.341739    0.220578
O      2.260357   -0.051708    1.655695
C      1.920074   -0.771784   -0.870542
C      3.246599   -0.145977   -1.224513
C      3.308009    0.945707   -2.104972
C      4.533420    1.533960   -2.428399
C      5.712967    1.048826   -1.866181
C      5.654107   -0.022807   -0.972983
S      7.145888   -0.637029   -0.228748
C      7.203870    0.217113    1.326050
O      6.949736   -2.050567    0.034993
O      8.262918   -0.181753   -1.035459
C      4.435360   -0.633638   -0.662736
H     -6.121946   -0.701917    3.282042
H     -7.094638   -1.622611    2.067079
H     -5.782095   -2.405004    2.955893
H     -7.133209    0.763712    1.792517
H     -7.427832    2.695411    0.325935
H     -5.895755    3.072715   -1.585687
H     -4.059327    1.487299   -2.031469
H     -3.052786   -0.649791   -1.693867
H     -3.742284   -1.813335   -0.573722
H     -2.552659   -0.209763    1.165501
H     -0.532829   -0.471942    2.002463
H      0.292580   -1.936535    1.433858
H      2.037436   -1.836644   -0.649473
H      1.212688   -0.643612   -1.692758
H      2.397323    1.350121   -2.545158
H      4.565437    2.375345   -3.117323
H      6.662974    1.510655   -2.125522
H      6.315773   -0.037679    1.908307
H      8.101850   -0.107985    1.856488
H      7.251758    1.291871    1.140178
H      4.409701   -1.476493    0.027125
