48

C     -3.990194    3.695941    0.511725
O     -3.689204    2.310526    0.619739
C     -2.405298    2.003908    0.068884
C     -2.154037    0.486768    0.191218
C     -0.718886    0.155990   -0.266456
C      0.190873   -0.120332    0.938764
N      1.419861   -0.870879    0.607892
C      2.392191   -0.085346   -0.054428
C      2.913060    1.032122    0.572094
C      3.855598    1.757493   -0.120153
O      4.355713    2.874309    0.523668
C      5.354756    3.554984   -0.229300
N      4.288695    1.442073   -1.348214
C      3.744512    0.336261   -1.862938
N      2.823694   -0.443517   -1.277587
C      1.257853   -2.215334    0.000003
C      0.450957   -3.186907    0.881071
C     -0.602467   -3.981416    0.094744
N     -1.583193   -3.148335   -0.596465
C     -2.585572   -2.550968    0.298198
C     -3.467582   -1.594504   -0.516901
O     -4.434669   -2.012233   -1.158870
N     -3.159747   -0.262449   -0.575540
H     -3.253159    4.291530    1.058848
H     -4.017130    4.000775   -0.538814
H     -4.976014    3.869309    0.951332
H     -2.381287    2.311635   -0.983711
H     -1.638378    2.557365    0.623401
H     -2.318059    0.199109    1.236233
H     -0.294688    0.981757   -0.852274
H     -0.733395   -0.690374   -0.954552
H     -0.353311   -0.681663    1.702919
H      0.422464    0.830228    1.435447
H      2.623549    1.319115    1.572600
H      4.946800    3.944270   -1.168544
H      5.694917    4.408959    0.364470
H      6.221717    2.910806   -0.412799
H      4.077041    0.038079   -2.851086
H      0.835353   -2.137527   -1.008058
H      2.251715   -2.668923   -0.124289
H     -0.017737   -2.699679    1.739143
H      1.152248   -3.909641    1.319549
H     -0.079142   -4.579110   -0.661611
H     -1.104269   -4.696850    0.757193
H     -2.086582   -3.705903   -1.291158
H     -3.235293   -3.326326    0.720823
H     -2.134291   -2.021317    1.137253
H     -3.859983    0.276224   -1.073463
