37

C      6.322387   -0.729664    0.854311
O      5.927861   -0.678371   -0.508276
C      5.341231    0.568522   -0.893952
C      3.934322    0.792865   -0.329492
O      3.049953   -0.184527   -0.881228
C      1.742518   -0.141019   -0.483823
C      0.935816   -1.143162   -1.026004
C     -0.421623   -1.216920   -0.705888
C     -0.995561   -0.286639    0.169505
C     -2.467193   -0.363279    0.509650
N     -3.278208    0.046010   -0.634230
C     -4.722958    0.120850   -0.391932
C     -5.105420    1.276408    0.535054
C     -5.321187   -1.198959    0.096825
C     -0.184805    0.723331    0.704295
C      1.176027    0.794515    0.381745
H      6.975948    0.111871    1.102956
H      6.878038   -1.658026    1.013318
H      5.450345   -0.740660    1.512993
H      6.007749    1.388944   -0.604697
H      5.288269    0.553913   -1.988017
H      3.601728    1.795368   -0.623742
H      3.944320    0.710717    0.762094
H      1.367935   -1.872627   -1.706748
H     -1.035118   -1.998854   -1.148530
H     -2.690313   -1.395889    0.802201
H     -2.663798    0.268398    1.382887
H     -2.940848    0.949354   -0.966023
H     -5.178471    0.331481   -1.367834
H     -6.194167    1.395515    0.565566
H     -4.681327    2.222159    0.180377
H     -4.763655    1.111719    1.561884
H     -5.035652   -2.026840   -0.561322
H     -6.415435   -1.142973    0.099479
H     -5.002595   -1.442949    1.115660
H     -0.607136    1.465244    1.378238
H      1.761022    1.594179    0.822221
