52

C     -7.288134   -1.653773   -2.113699
O     -6.616572   -0.401916   -2.132265
C     -5.701794   -0.245592   -1.041982
C     -4.327540   -0.800333   -1.414659
C     -3.326000   -0.749534   -0.255534
N     -3.102862    0.582282    0.321161
C     -2.595339    1.598632   -0.610646
C     -1.233598    1.319172   -1.248800
C     -0.015742    1.704571   -0.402616
N     -0.064084    1.451624    1.037363
C      1.263912    1.564020    1.673464
C      2.284272    0.507883    1.200951
O      2.014958   -0.688593    1.161934
N      3.503032    1.070544    0.857833
C      4.654656    0.425440    0.343366
C      4.698250   -0.934720    0.021242
C      5.869090   -1.520383   -0.494477
C      5.881065   -2.973902   -0.876688
C      7.002408   -0.727373   -0.705808
C      6.975184    0.628672   -0.389801
C      5.810076    1.198764    0.129380
Cl     5.827003    2.889923    0.498919
C     -0.789964    0.240389    1.430706
C     -2.308111    0.514708    1.558015
H     -7.943978   -1.706792   -2.987566
H     -7.905803   -1.738480   -1.215726
H     -6.580140   -2.482419   -2.162008
H     -6.098605   -0.715502   -0.133244
H     -5.631200    0.829657   -0.848187
H     -3.941851   -0.271852   -2.294332
H     -4.426841   -1.843367   -1.735150
H     -3.722901   -1.407472    0.529056
H     -2.387351   -1.210703   -0.582271
H     -3.329399    1.729192   -1.414591
H     -2.574935    2.574454   -0.107515
H     -1.175095    1.890848   -2.184158
H     -1.150101    0.270733   -1.553896
H      0.846822    1.203826   -0.860609
H      0.155888    2.780047   -0.536115
H      1.176126    1.476230    2.762907
H      1.648835    2.573527    1.488695
H      3.615322    2.066553    1.006327
H      3.825262   -1.570430    0.154225
H      6.875127   -3.405095   -0.738951
H      5.190153   -3.548354   -0.254758
H      5.590605   -3.087148   -1.924928
H      7.910038   -1.162936   -1.121121
H      7.861375    1.235162   -0.556245
H     -0.465570   -0.070723    2.432672
H     -0.580169   -0.608132    0.769516
H     -2.740875   -0.253507    2.212514
H     -2.454910    1.452177    2.112603
