32

C     -4.577471    1.388041    1.007854
O     -3.960741    0.144550    1.318052
C     -4.213055   -0.866425    0.332653
C     -3.300771   -0.709760   -0.884257
N     -1.903136   -0.698140   -0.491530
C     -0.905912   -0.776118   -1.439958
O     -1.127040   -0.963900   -2.631059
C      0.488236   -0.578180   -0.952212
C      1.453885   -0.128615   -1.859628
C      2.773020    0.070783   -1.444413
C      3.149651   -0.185336   -0.119015
C      4.577792    0.035607    0.327813
C      4.716478    1.291595    1.175067
F      5.443692    0.157315   -0.723448
C      2.181151   -0.651971    0.782982
C      0.859665   -0.850890    0.370020
H     -4.158301    1.816127    0.093619
H     -4.381605    2.080059    1.831489
H     -5.660207    1.266369    0.907643
H     -5.269125   -0.862868    0.040192
H     -4.007987   -1.828438    0.815229
H     -3.466051   -1.527630   -1.593765
H     -3.493857    0.233136   -1.405799
H     -1.700688   -0.247703    0.393274
H      1.181231    0.069078   -2.894713
H      3.510009    0.423086   -2.164720
H      4.911416   -0.838581    0.897924
H      5.761626    1.432456    1.469219
H      4.420724    2.179990    0.606123
H      4.103942    1.244050    2.080904
H      2.451877   -0.874253    1.813516
H      0.141549   -1.243436    1.084658
