57

C      5.961644    1.754674   -3.583514
O      4.857248    1.030308   -3.063596
C      5.277276   -0.059455   -2.240767
C      4.053161   -0.783281   -1.651685
N      3.337746   -0.017173   -0.621922
C      4.103564    0.195881    0.608389
C      3.055300    0.368365    1.707877
C      1.709584    0.160717    1.011013
C      0.662283   -0.511698    1.907769
N     -0.679862   -0.519082    1.289841
C     -1.306800    0.747372    1.346151
O     -0.874573    1.692182    2.007419
C     -2.497784    1.051857    0.543368
C     -3.720974    1.280812    1.176068
C     -4.839624    1.645959    0.420415
C     -4.733933    1.813007   -0.966261
O     -5.776068    2.160742   -1.786242
C     -7.050268    2.356755   -1.189602
C     -3.480592    1.625017   -1.579914
Cl    -3.274629    1.828750   -3.285804
C     -2.360584    1.262067   -0.829272
C     -1.391304   -1.835591    1.027255
C     -2.466684   -2.065414    2.107752
C     -2.042490   -1.889524   -0.369539
C     -0.452801   -3.070895    1.077954
C      2.087375   -0.659149   -0.213901
H      6.585408    1.106205   -4.206496
H      5.578747    2.570869   -4.202874
H      6.556963    2.183367   -2.770957
H      5.945332    0.298101   -1.449558
H      5.836155   -0.767969   -2.864343
H      3.358157   -0.985802   -2.475971
H      4.372846   -1.751363   -1.246260
H      4.738715    1.083672    0.528472
H      4.741582   -0.662686    0.852285
H      3.217883   -0.372569    2.499760
H      3.106002    1.363722    2.162871
H      1.345484    1.142814    0.678136
H      0.997378   -1.512088    2.178068
H      0.596737    0.030235    2.860302
H     -3.801732    1.183217    2.256534
H     -5.776069    1.800421    0.946031
H     -7.415149    1.432404   -0.730956
H     -7.751631    2.633508   -1.982840
H     -7.027826    3.177242   -0.465695
H     -1.391095    1.137881   -1.307113
H     -2.024083   -2.043543    3.111297
H     -3.249111   -1.303795    2.084785
H     -2.959650   -3.035872    1.977390
H     -1.351369   -1.530215   -1.139497
H     -2.968326   -1.313957   -0.422332
H     -2.331434   -2.912668   -0.641007
H      0.381930   -2.970785    0.377524
H     -0.990308   -3.989326    0.808602
H     -0.052089   -3.246089    2.083451
H      1.322550   -0.596352   -0.994777
H      2.251794   -1.711782    0.045825
