40

C      6.836327    0.775183   -0.162184
S      5.840738    2.278245   -0.339436
O      5.739470    2.571981   -1.807725
C      4.257948    1.547813    0.134877
C      3.952307    1.380649    1.487776
C      2.730357    0.815212    1.868207
C      1.799493    0.407585    0.904476
N      0.591011   -0.145788    1.368679
C     -0.408073   -0.734946    0.623205
O     -0.378861   -0.968971   -0.576821
N     -1.474577   -1.067435    1.425702
C     -2.698905   -1.614233    0.901051
C     -2.465727   -3.017571    0.316729
O     -3.487882   -1.848557    2.070709
C     -3.447741   -0.620199    0.007477
C     -3.758410   -0.946079   -1.330219
C     -4.444558   -0.057998   -2.165060
C     -4.837263    1.185605   -1.688947
C     -4.537117    1.543470   -0.378615
C     -3.848184    0.656915    0.461227
Cl    -3.528316    1.228149    2.066597
C      2.104169    0.589248   -0.445270
C      3.325269    1.157449   -0.828080
H      7.855191    0.995660   -0.489789
H      6.423420   -0.024412   -0.782291
H      6.855765    0.467362    0.885945
H      4.654443    1.691824    2.257124
H      2.518563    0.698850    2.928091
H      0.482953   -0.231056    2.368144
H     -1.632155   -0.486077    2.231862
H     -1.838436   -3.012256   -0.579620
H     -3.416838   -3.503614    0.067563
H     -1.976240   -3.665689    1.054673
H     -4.419000   -1.817052    1.794533
H     -3.453252   -1.896136   -1.763632
H     -4.659230   -0.339001   -3.193848
H     -5.364339    1.879312   -2.338741
H     -4.837328    2.523543   -0.014807
H      1.407791    0.309051   -1.230147
H      3.537218    1.293963   -1.887040
