45

C      5.835592    0.851312    1.451639
S      4.436793    1.940839    1.497606
O      3.842357    1.781898    2.813091
O      4.838375    3.254730    1.038165
C      3.290108    1.273277    0.316623
C      2.074562    0.758186    0.797920
C      1.135301    0.222616   -0.090600
C     -0.153204   -0.293369    0.444018
O     -0.651565    0.273633    1.410601
N     -0.723555   -1.396781   -0.186941
C      0.077903   -2.552639   -0.569748
C     -0.649224   -3.727977    0.062909
C     -2.107652   -3.325978   -0.086901
C     -2.091836   -1.807556    0.164988
C     -3.176802   -1.122880   -0.691703
C     -3.305806    0.370718   -0.520926
C     -2.916473    1.239925   -1.550249
C     -3.037856    2.621804   -1.395640
C     -3.549860    3.148681   -0.212041
C     -3.940991    2.294521    0.816932
C     -3.821953    0.912225    0.663471
C      1.391088    0.238236   -1.464116
C      2.595745    0.759565   -1.941179
C      3.551631    1.278065   -1.056767
Cl     5.000080    1.882604   -1.771185
H      6.346016    0.922944    0.492958
H      6.520865    1.155033    2.246768
H      5.494730   -0.169789    1.634281
H      1.840701    0.777651    1.862639
H      0.056718   -2.624522   -1.662522
H      1.112849   -2.483130   -0.223940
H     -0.391611   -3.807002    1.125908
H     -0.416012   -4.679467   -0.422355
H     -2.763373   -3.853391    0.612461
H     -2.444788   -3.559092   -1.104616
H     -2.256440   -1.612008    1.231798
H     -4.153239   -1.571020   -0.463214
H     -2.992748   -1.342245   -1.752355
H     -2.510836    0.846411   -2.478554
H     -2.728405    3.288062   -2.196018
H     -3.636529    4.224390   -0.086832
H     -4.327834    2.704244    1.745984
H     -4.117730    0.262340    1.483208
H      0.647406   -0.127012   -2.168499
H      2.777500    0.771946   -3.014608
