20

C      3.357719   -0.139695    0.025896
S      2.232263    0.498774    1.290542
C      0.646984    0.277645    0.397916
C     -0.501758    0.696343    1.328164
C     -1.880496    0.127455    0.975183
C     -2.380694    0.401278   -0.440288
S     -1.320868   -0.124218   -1.815451
C     -0.382210   -1.387100   -1.023617
O     -0.520461   -2.546423   -1.391089
O      0.493213   -1.082635   -0.019483
H      3.184229   -1.205497   -0.142598
H      4.388516   -0.009193    0.366141
H      3.230501    0.408719   -0.911068
H      0.711320    0.948974   -0.464518
H     -0.555016    1.791878    1.368185
H     -0.296302    0.360441    2.353948
H     -2.609549    0.549734    1.679158
H     -1.891751   -0.953062    1.168212
H     -3.351441   -0.089633   -0.570135
H     -2.554198    1.476215   -0.560534
