40

C      7.144238    1.557482    1.042196
S      5.351462    1.602381    1.269755
C      4.860772    0.293456    0.232845
N      5.703215   -0.435098   -0.465002
C      4.928661   -1.335807   -1.131872
C      3.601742   -1.149666   -0.834364
N      3.536331   -0.091636    0.053694
C      2.424018    0.504609    0.669830
N      1.155588    0.219954    0.561261
N      0.805863   -0.816974   -0.277555
C     -0.465638   -1.056164   -0.307187
S     -1.079216   -2.349324   -1.331547
C     -2.813972   -2.035581   -0.881035
C     -3.620503   -3.322434   -0.847652
C     -2.709705   -1.367200    0.485366
C     -1.568637   -0.340624    0.435029
C     -1.905539    0.962001   -0.303159
C     -3.013815    1.717962    0.336429
C     -4.247984    2.144273   -0.107224
C     -4.848487    2.822911    0.980513
C     -3.942195    2.769869    2.013035
O     -2.824673    2.101351    1.630121
H      7.551070    0.594688    1.363919
H      7.405836    1.733728   -0.004945
H      7.601633    2.344215    1.648301
H      5.360608   -2.075594   -1.793883
H      2.728062   -1.679015   -1.179908
H      2.638662    1.341936    1.351499
H     -3.246421   -1.347407   -1.615069
H     -3.208562   -4.047924   -0.137173
H     -3.654017   -3.793516   -1.836082
H     -4.652825   -3.114861   -0.545572
H     -3.664502   -0.914581    0.773216
H     -2.482511   -2.116620    1.257433
H     -1.246417   -0.120485    1.459727
H     -1.022212    1.612025   -0.334832
H     -2.159422    0.762398   -1.351603
H     -4.661767    1.987671   -1.093656
H     -5.819456    3.296755    1.009059
H     -3.939287    3.140846    3.028469
