36

C      4.354572    1.515175   -1.749175
S      2.831482    0.538176   -1.756418
C      2.823397    0.023410   -0.012191
C      1.714003   -0.977908    0.336277
C      0.270781   -0.442213    0.577762
O      0.366121    0.551729    1.615244
C     -0.334833    0.208133   -0.699715
C     -1.826702    0.407693   -0.687230
N     -2.681349   -0.333319   -1.371132
C     -3.924525    0.166104   -1.098484
C     -3.837151    1.238515   -0.247638
N     -2.499372    1.392211    0.000604
C     -1.943310    2.422912    0.840450
C     -0.652268   -1.525813    1.132410
C     -0.217051   -2.880072    1.655464
C     -0.945503   -2.783781    0.346000
H      5.209023    0.886885   -1.484779
H      4.271720    2.343009   -1.040222
H      4.522201    1.927666   -2.747586
H      2.779064    0.908885    0.627514
H      3.786520   -0.464444    0.177293
H      1.703377   -1.791480   -0.399756
H      2.049711   -1.425106    1.282107
H      0.826854    1.324045    1.250441
H     -0.116494   -0.435768   -1.561796
H      0.129098    1.181270   -0.893270
H     -4.814610   -0.271518   -1.530571
H     -4.590266    1.881983    0.184228
H     -2.629737    3.273978    0.864808
H     -1.822847    2.017844    1.847482
H     -0.986492    2.753406    0.431757
H     -1.501694   -1.077662    1.644530
H      0.819035   -3.188457    1.625838
H     -0.758465   -3.282705    2.505500
H     -1.980014   -3.108084    0.300974
H     -0.394277   -2.974701   -0.567066
