31

F      5.025391    1.443833    1.787057
C      4.382896    0.707038    0.870338
C      3.003663    0.852388    0.742838
C      2.293377    0.138810   -0.241279
C      0.793162    0.331257   -0.321089
N      0.114056   -0.661632    0.510316
C     -1.340729   -0.512591    0.596960
C     -2.046348   -0.520389   -0.765913
C     -3.567486   -0.628272   -0.649288
C     -4.192775    0.282273    0.411331
C     -3.317062    1.473112    0.788338
S     -1.784961    0.941124    1.622060
C      3.008096   -0.746868   -1.068336
Br     2.156810   -1.778552   -2.424609
C      4.391897   -0.907616   -0.920392
C      5.077580   -0.173949    0.048935
Cl     6.781729   -0.361023    0.206995
H      2.483024    1.524263    1.425160
H      0.561510    1.355051    0.003084
H      0.471554    0.279137   -1.366453
H      0.323065   -1.587894    0.141196
H     -1.700706   -1.377888    1.171230
H     -1.689193   -1.353232   -1.381896
H     -1.804772    0.392253   -1.326993
H     -4.003917   -0.395183   -1.629274
H     -3.849432   -1.667645   -0.435769
H     -5.151850    0.649956    0.015952
H     -4.441531   -0.302091    1.310652
H     -3.055340    2.065864   -0.099958
H     -3.857607    2.138057    1.471381
H      4.935899   -1.599593   -1.556890
