25

F     -1.847431   -1.151229    2.348666
C     -2.433672   -0.772485    1.202524
C     -3.814061   -0.913349    1.084486
C     -4.445790   -0.529880   -0.095319
C     -3.690345   -0.008653   -1.145920
C     -2.302246    0.130889   -1.021932
C     -1.660721   -0.252736    0.158351
O     -0.317272   -0.165999    0.403348
C      0.514827    0.305967   -0.653013
C      1.954030    0.267013   -0.211145
C      2.841076    1.301486   -0.527736
C      4.175009    1.210822   -0.137302
C      4.574956    0.076747    0.547342
Cl     6.201455   -0.114954    1.055789
N      3.761119   -0.949408    0.861144
C      2.469752   -0.829491    0.477240
H     -4.382818   -1.321067    1.914043
H     -5.523002   -0.636184   -0.196466
H     -4.184020    0.291897   -2.067746
H     -1.758779    0.543450   -1.865331
H      0.413475   -0.330670   -1.540646
H      0.237005    1.337893   -0.899991
H      2.502135    2.179056   -1.072759
H      4.878613    2.002939   -0.365333
H      1.836706   -1.672052    0.748646
