23

N     -4.997820    2.157909    0.817789
C     -4.650379    1.186380    0.285023
C     -4.234561   -0.030185   -0.420197
C     -2.793599   -0.309862   -0.175739
N     -2.343943   -1.227748    0.650011
N     -0.967243   -1.282587    0.657604
C     -0.394486   -0.406880   -0.148071
N      0.947306   -0.277798   -0.311206
C      1.600191    0.870220   -0.919875
C      3.010257    0.853210   -0.327338
C      3.236262   -0.611941    0.010978
C      1.864315   -1.055407    0.508650
S     -1.559853    0.537998   -1.014939
H     -4.833852   -0.879654   -0.072396
H     -4.427788    0.069416   -1.494500
H      1.110464    1.822271   -0.688180
H      1.638400    0.742475   -2.007411
H      3.036894    1.454604    0.589583
H      3.758805    1.251979   -1.017669
H      4.022032   -0.761047    0.756528
H      3.508225   -1.167273   -0.894790
H      1.742430   -0.801889    1.568669
H      1.727940   -2.134192    0.378500
