32

N     -1.917516    3.304743   -0.948266
C     -2.281649    2.228527   -0.710478
C     -2.766022    0.900946   -0.448098
C     -4.084100    0.749608    0.006248
C     -4.584719   -0.521428    0.266182
F     -5.846170   -0.652405    0.698526
C     -3.790099   -1.644065    0.080193
F     -4.277277   -2.865962    0.334345
C     -2.481413   -1.511752   -0.371679
C     -1.951962   -0.236713   -0.646884
C     -0.508711   -0.118258   -1.110836
N      0.363730    0.444462   -0.067665
C      1.697358    0.794756   -0.607373
C      2.648497   -0.273911   -0.089609
C      4.042208    0.255562    0.207299
O      4.678413    0.680700   -0.991326
C      1.949822   -0.794124    1.116779
C      1.226579    0.079448    2.118416
N      0.514568   -0.548898    1.007567
H     -4.727505    1.611631    0.163800
H     -1.874707   -2.405744   -0.489957
H     -0.136454   -1.092808   -1.456817
H     -0.506838    0.528232   -1.998818
H      1.729557    0.873352   -1.700403
H      1.964213    1.784258   -0.215458
H      2.712149   -1.076582   -0.836616
H      4.664837   -0.514368    0.676178
H      4.007711    1.107269    0.895195
H      4.907345   -0.113861   -1.504234
H      2.249769   -1.789538    1.414997
H      1.362821    1.153987    2.112582
H      1.015567   -0.337065    3.096209
