25

N      5.272051    0.697692   -0.623828
C      3.938801    0.956061   -0.761856
O      3.550417    1.928044   -1.396083
C      3.042300   -0.046446   -0.082357
C      1.571652    0.290687   -0.275550
O      0.808945   -0.713007    0.405642
C     -0.554415   -0.524505    0.307045
C     -1.352249   -1.463434    0.939792
C     -2.735203   -1.313777    0.867809
C     -3.277881   -0.235674    0.161622
C     -4.752533    0.000057    0.061745
F     -5.132797    0.487385   -1.151526
F     -5.490456   -1.128575    0.255383
F     -5.197460    0.898704    0.981798
C     -2.390929    0.653322   -0.430158
N     -1.044789    0.530764   -0.374781
H      5.919994    1.364098   -1.024203
H      5.632558   -0.025040   -0.017003
H      3.281024   -0.073173    0.987500
H      3.251947   -1.044942   -0.484001
H      1.360370    1.280671    0.148765
H      1.329426    0.289931   -1.346100
H     -0.905350   -2.291935    1.477828
H     -3.382375   -2.036975    1.360047
H     -2.743047    1.520068   -0.986589
