38

N     -5.718234   -2.286087    1.609308
C     -4.893158   -1.961742    0.578202
O     -4.650431   -2.756428   -0.319650
C     -4.245865   -0.630681    0.647728
C     -4.872359    0.438514    1.175909
C     -4.211540    1.723786    1.210647
C     -2.963906    1.837577    0.728124
C     -2.176420    3.117263    0.722864
S     -0.552572    2.703420    0.003043
C     -0.986463    1.003524   -0.271440
N     -0.203713    0.119771   -0.816500
N      1.053091    0.585772   -1.202666
C      1.846118   -0.372836   -1.569039
F      1.431665   -1.650028   -1.542496
C      3.248943   -0.095459   -2.025740
C      4.253803   -0.281801   -0.917552
C      5.011826   -1.457055   -0.828044
C      5.929861   -1.627746    0.209604
C      6.094787   -0.629756    1.168424
C      5.339913    0.539128    1.093212
C      4.421811    0.712520    0.056830
N     -2.268238    0.763870    0.182110
C     -2.866202   -0.569712    0.030921
H     -6.077793   -3.231966    1.623100
H     -5.769578   -1.746516    2.460949
H     -5.882815    0.388696    1.568227
H     -4.743638    2.570689    1.631691
H     -2.032193    3.500829    1.736953
H     -2.659504    3.877787    0.102582
H      3.470939   -0.771912   -2.858853
H      3.313608    0.925785   -2.418797
H      4.892245   -2.249769   -1.563416
H      6.514757   -2.541722    0.271688
H      6.808388   -0.764602    1.976935
H      5.462376    1.315483    1.843916
H      3.831869    1.627125    0.016748
H     -2.221622   -1.310983    0.519337
H     -2.929754   -0.814737   -1.036266
