26

N      2.893472    0.649517    2.982606
C      2.300115    0.295409    1.802456
O      2.625191    0.830223    0.747079
C      1.269614   -0.739028    1.910356
N      0.919440   -1.244943    3.108675
O     -0.076844   -2.167180    2.856039
C     -0.317104   -2.218951    1.527188
C      0.508347   -1.340391    0.864610
C      0.574698   -1.101790   -0.598018
N     -0.440304   -0.147761   -0.995128
C     -0.288158    1.273254   -0.807454
C     -1.477996    1.842915   -1.555021
C     -2.553917    0.774639   -1.393304
C     -1.755692   -0.499097   -1.256476
O     -2.209102   -1.630274   -1.313821
H      2.609586    0.202496    3.846654
H      3.613767    1.355695    2.984911
H     -1.087653   -2.908697    1.211284
H      1.552305   -0.735537   -0.923406
H      0.389246   -2.043698   -1.128286
H      0.663736    1.618847   -1.219411
H     -0.343145    1.500526    0.262044
H     -1.788334    2.821827   -1.179284
H     -1.231044    1.952809   -2.618519
H     -3.134781    0.927092   -0.478612
H     -3.215441    0.732096   -2.261691
