66

N     -0.767104    2.378634   -3.098171
C     -1.166931    1.277220   -2.396911
O     -1.326575    0.216914   -2.988808
C     -1.382620    1.497462   -0.893103
C     -0.002885    1.681771   -0.239093
N      0.734098    0.433498   -0.071133
C      2.132623    0.503296   -0.103119
O      2.719796    1.557887   -0.363423
C      2.902964   -0.795330    0.175620
N      4.327007   -0.554771    0.094827
C      5.049839   -0.632104   -1.061953
O      4.689129   -0.971672   -2.171794
C      6.413881   -0.229953   -0.721820
C      7.544277   -0.139703   -1.510486
C      8.724932    0.279175   -0.887932
C      8.745829    0.594796    0.487693
C      7.586731    0.496096    1.264474
C      6.434974    0.078068    0.627423
C      5.085285   -0.131257    1.149399
O      4.758682    0.036195    2.308897
C      0.005665   -0.664316    0.565373
C     -1.381630   -0.916455   -0.065588
C     -2.057100   -2.140813    0.554788
C     -2.651000   -3.093008   -0.292373
C     -3.263297   -4.235359    0.225467
C     -3.289852   -4.448742    1.600173
C     -2.705313   -3.519301    2.455876
C     -2.092312   -2.375424    1.938186
C     -2.262365    0.404444   -0.163097
C     -3.585270    0.087171   -0.939540
C     -4.435977    1.283911   -1.369386
C     -5.455657    1.764971   -0.343640
C     -5.032153    1.754872    1.120011
C     -3.573988    2.115605    1.380733
C     -2.633314    0.908634    1.271626
H     -0.436940    3.227592   -2.661339
H     -0.536170    2.232868   -4.073458
H     -1.887748    2.467372   -0.819089
H     -0.101156    2.132667    0.755818
H      0.598517    2.388556   -0.822430
H      2.623261   -1.542273   -0.573928
H      2.667246   -1.145195    1.185217
H      7.511473   -0.383323   -2.567557
H      9.640395    0.365079   -1.471257
H      9.677097    0.920733    0.948615
H      7.586150    0.739020    2.322676
H     -0.063003   -0.412885    1.629280
H      0.588868   -1.587532    0.503065
H     -1.152165   -1.217979   -1.096155
H     -2.639855   -2.949607   -1.372175
H     -3.717204   -4.958340   -0.447150
H     -3.765627   -5.338064    2.004148
H     -2.727454   -3.684527    3.530258
H     -1.652556   -1.671512    2.639686
H     -3.337052   -0.473234   -1.848167
H     -4.211871   -0.595482   -0.351571
H     -3.817552    2.126954   -1.687080
H     -4.997435    0.996205   -2.267868
H     -5.757864    2.783974   -0.621526
H     -6.365858    1.156811   -0.434235
H     -5.672366    2.467547    1.655104
H     -5.257820    0.774528    1.558780
H     -3.253034    2.956467    0.759392
H     -3.511534    2.470209    2.418297
H     -1.723631    1.156400    1.827861
H     -3.097479    0.094560    1.837590
