16

N      2.301993   -1.573591    0.232410
C      1.271537   -0.630513    0.117804
N      0.010061   -1.100717    0.049454
C     -1.022126   -0.206778   -0.063097
C     -2.451840   -0.697542   -0.142423
F     -2.577006   -2.054164   -0.091201
F     -3.227297   -0.220896    0.874073
F     -3.073933   -0.316970   -1.295659
C     -0.801414    1.159507   -0.108001
F     -1.821562    2.020050   -0.218222
C      0.499170    1.627080   -0.036771
F      0.741175    2.944928   -0.078024
C      1.548884    0.733129    0.077020
F      2.814528    1.172596    0.147025
H      2.836556   -1.392123    1.079248
H      2.951274   -1.463995   -0.543635
