39

N      4.826412   -2.065372   -0.986677
C      4.813320   -0.875134   -0.240536
C      6.003296   -0.138336   -0.143741
C      6.036083    1.102176    0.492957
C      4.865632    1.643676    1.007802
C      3.662012    0.953523    0.865501
C      3.612190   -0.297821    0.221370
C      2.293039   -1.020195    0.027377
O      1.181660   -0.272029    0.537983
C      0.000636   -0.923207    0.431558
O     -0.154499   -2.041420   -0.034472
N     -0.989874   -0.129177    0.925188
C     -2.386607   -0.496533    0.870167
C     -3.017930   -0.176120   -0.493042
C     -4.435536   -0.748218   -0.596320
C     -5.328565    0.281603    0.085110
C     -4.597273    1.622010   -0.018940
C     -3.253334    1.326257   -0.686412
O     -3.332901    1.644060   -2.074570
H      4.095742   -2.727954   -0.750813
H      5.737662   -2.512407   -1.023124
H      6.924245   -0.532282   -0.566161
H      6.972263    1.647443    0.573548
H      4.882548    2.611773    1.501102
H      2.754961    1.412727    1.251535
H      2.137543   -1.185006   -1.045838
H      2.345894   -1.979612    0.556842
H     -0.708701    0.802191    1.199016
H     -2.889645    0.029992    1.687859
H     -2.461188   -1.571801    1.070421
H     -2.398595   -0.588680   -1.298560
H     -4.724209   -0.841591   -1.650383
H     -4.534632   -1.740353   -0.144738
H     -6.318684    0.321592   -0.380162
H     -5.474742    0.019901    1.139595
H     -5.189538    2.349841   -0.583522
H     -4.442505    2.022982    0.989316
H     -2.453220    1.943150   -0.267112
H     -4.052963    1.128349   -2.474711
