34

N     -0.108770    1.908300   -2.875194
C     -1.263574    1.490030   -2.063359
C     -0.992959    0.188635   -1.255125
N      0.310111    0.254627   -0.605444
C      0.938178   -0.873068   -0.131378
O      0.431980   -1.987218   -0.083287
C      2.301505   -0.669891    0.402813
C      2.507865   -1.043890    1.739134
C      3.759441   -0.875351    2.331492
C      4.811632   -0.342013    1.589849
C      4.616971    0.013081    0.252957
C      3.363632   -0.154527   -0.347749
Br     3.216596    0.282389   -2.188353
C     -2.112369   -0.056554   -0.254544
C     -2.275523    0.767339    0.874256
C     -3.314852    0.537536    1.776934
C     -4.191682   -0.517090    1.557425
F     -5.189095   -0.736881    2.424305
C     -4.048076   -1.348372    0.453860
C     -3.009843   -1.119840   -0.451095
H     -0.385724    2.691037   -3.468078
H      0.149110    1.150820   -3.509749
H     -2.136173    1.346885   -2.711511
H     -1.497309    2.320955   -1.387763
H     -0.942206   -0.650346   -1.962216
H      0.872025    1.065409   -0.843084
H      1.687699   -1.466690    2.317138
H      3.912944   -1.164350    3.368594
H      5.789259   -0.213640    2.049008
H      5.455350    0.409297   -0.315728
H     -1.583813    1.586482    1.059019
H     -3.441328    1.168665    2.650293
H     -4.737554   -2.173598    0.308970
H     -2.893451   -1.788168   -1.301817
