31

N     -3.173314    1.848426    0.128254
C     -3.030229    0.609176   -0.619856
C     -1.826944   -0.145816   -0.084197
C     -0.485603    0.431317   -0.547591
C      0.683563    0.421115    0.452292
C      1.397222   -0.941735    0.547121
C      2.850937   -0.769486    0.965292
C      3.594510    0.128435   -0.020625
C      2.652292    1.071993   -0.758625
O      1.600869    1.481618    0.107164
C     -1.937145   -1.661896   -0.042025
C     -2.000619   -0.885331    1.236707
H     -3.312236    1.632375    1.113375
H     -4.012832    2.333264   -0.181607
H     -3.948276    0.019286   -0.517149
H     -2.897948    0.825546   -1.685459
H     -0.190220   -0.069993   -1.478750
H     -0.645493    1.476861   -0.844626
H      0.310851    0.698289    1.444547
H      1.374453   -1.452473   -0.424063
H      0.881907   -1.599740    1.253378
H      2.886093   -0.320882    1.966007
H      3.350695   -1.741678    1.037876
H      4.340861    0.708273    0.535757
H      4.150093   -0.471288   -0.750618
H      3.197140    1.962882   -1.087110
H      2.233905    0.600506   -1.655609
H     -1.054934   -2.261820   -0.232367
H     -2.849793   -2.130163   -0.396144
H     -1.178543   -0.970405    1.933811
H     -2.961261   -0.826657    1.739784
