30

O      0.927078    0.688476    2.372510
C      0.349477    0.369102    1.337152
N      0.972953    0.126124    0.131451
C      2.350392    0.187859   -0.166189
C      3.342369    0.520266    0.757740
C      4.687103    0.556622    0.372625
C      5.051518    0.261164   -0.938665
C      4.071019   -0.071595   -1.868478
C      2.728224   -0.107804   -1.483542
C     -1.118238    0.222129    1.333350
C     -1.869528    0.437819    2.481437
N     -3.188696    0.236579    2.204715
C     -3.343646   -0.112418    0.886051
C     -4.516213   -0.408876    0.175279
C     -4.400924   -0.739483   -1.176930
C     -3.156488   -0.771687   -1.793618
C     -2.003992   -0.472560   -1.064418
F     -0.825348   -0.516792   -1.702780
C     -2.068210   -0.132422    0.305391
H      0.377312   -0.129268   -0.643933
H      3.107191    0.758006    1.790030
H      5.448197    0.817306    1.103811
H      6.097090    0.290674   -1.233203
H      4.348912   -0.303175   -2.893211
H      1.981391   -0.370648   -2.228871
H     -1.550589    0.721464    3.477286
H     -3.944582    0.329714    2.870186
H     -5.489845   -0.384007    0.656475
H     -5.294848   -0.973634   -1.750970
H     -3.069078   -1.028936   -2.844915
