53

O     -1.548302   -3.294366   -1.709397
C     -1.229096   -2.579390   -0.763093
N     -1.844945   -1.399674   -0.403062
C     -2.908688   -0.724097   -1.036666
C     -3.493140   -1.139362   -2.233012
C     -4.519103   -0.384139   -2.806574
C     -4.957683    0.781868   -2.183105
Cl    -6.206519    1.717553   -2.909819
C     -4.389717    1.206512   -0.982811
C     -3.368701    0.452178   -0.400672
O     -2.722458    0.772524    0.775264
C     -3.320998    1.783610    1.594860
C     -2.601612    1.842258    2.935185
F     -3.193933    0.992294    3.813987
F     -2.733426    3.087110    3.460043
C     -0.026170   -2.957922    0.100128
C     -0.333772   -2.987270    1.596454
C      0.148261   -1.643155    2.080073
O     -0.182752   -1.107929    3.124124
N      0.987719   -1.110965    1.120368
C      1.582620    0.213474    1.234814
C      2.901175    0.359393    0.509568
C      4.046094   -0.147754    1.153646
C      5.296944   -0.074848    0.553193
C      5.422309    0.499037   -0.706900
C      4.303470    1.008067   -1.384019
C      4.461691    1.578166   -2.657851
C      3.371161    2.091310   -3.357511
C      2.105554    2.034706   -2.792759
C      1.932175    1.472553   -1.525197
C      3.018732    0.945801   -0.784345
C      1.094378   -1.944744   -0.056591
H     -1.525144   -0.918836    0.432420
H     -3.166181   -2.037511   -2.748771
H     -4.963836   -0.707974   -3.743900
H     -4.751119    2.124874   -0.534468
H     -3.218759    2.752063    1.093583
H     -4.380520    1.560049    1.766694
H     -1.538237    1.595038    2.863573
H      0.297736   -3.949911   -0.239862
H     -1.397298   -3.111681    1.811642
H      0.244302   -3.762410    2.107959
H      0.836986    0.937469    0.894111
H      1.723582    0.443593    2.298874
H      3.960763   -0.607622    2.137182
H      6.173577   -0.468843    1.063792
H      6.410198    0.546272   -1.161413
H      5.446176    1.628517   -3.118384
H      3.512315    2.529402   -4.342544
H      1.249051    2.430484   -3.334846
H      0.918774    1.449797   -1.134407
H      1.001386   -1.343613   -0.964741
H      2.074979   -2.431953   -0.034399
