48

O      0.917862   -0.241266    0.582390
C      1.813817    0.484803    0.155833
N      1.535329    1.629917   -0.545719
C      0.161787    2.017865   -0.805506
C     -0.428820    1.272077   -2.002802
C     -1.918875    1.565048   -2.173867
O     -2.746886    0.485838   -1.742417
C     -2.751516    0.284458   -0.333519
C     -3.929270   -0.595552    0.015723
C     -3.689802   -1.808219    0.687378
C     -4.741150   -2.656631    1.033354
C     -6.048323   -2.309568    0.712158
C     -6.305428   -1.110067    0.048362
C     -5.259400   -0.232816   -0.301116
C     -5.599334    1.051260   -1.029945
F     -4.855510    2.125572   -0.636623
F     -5.463718    0.962384   -2.381635
F     -6.896313    1.437945   -0.826792
N      3.156111    0.213060    0.361003
C      4.280507    1.018263   -0.155823
C      5.449629    1.123368    0.834932
C      5.761882   -0.233206    1.359921
C      4.850248   -1.267417    1.382787
C      5.432971   -2.442760    1.954512
C      6.743902   -2.245024    2.334489
S      7.274034   -0.650285    2.006845
C      3.450451   -1.139869    0.860640
H      2.204438    1.898957   -1.248086
H      0.167570    3.095973   -1.000279
H     -0.425954    1.845781    0.101701
H     -0.255000    0.193264   -1.918396
H      0.106987    1.608531   -2.899529
H     -2.228613    2.497569   -1.687533
H     -2.126199    1.683759   -3.242972
H     -1.813011   -0.197368   -0.040835
H     -2.835009    1.232854    0.209983
H     -2.672242   -2.103060    0.940039
H     -4.536461   -3.591712    1.548913
H     -6.868527   -2.972752    0.976070
H     -7.336112   -0.856752   -0.198599
H      4.605917    0.540465   -1.088586
H      3.961376    2.034186   -0.401398
H      5.163334    1.771356    1.672380
H      6.314181    1.576664    0.337343
H      4.916990   -3.387084    2.081287
H      7.417990   -2.958387    2.789037
H      2.738740   -1.405100    1.650682
H      3.305419   -1.833899    0.024214
