67

O      1.017285    0.913761   -0.332487
C      0.461218   -0.183871   -0.407799
N      1.112521   -1.366730   -0.118643
C      2.468048   -1.392999    0.416875
C      3.442607   -2.134152   -0.516830
C      3.608788   -1.400090   -1.866522
C      5.069577   -1.320371   -2.308216
C      5.915888   -0.633417   -1.231858
N      5.601175   -1.161742    0.089334
C      6.320949   -0.694688    1.167627
N      6.105748   -1.233607    2.381377
C      6.789208   -0.727586    3.426049
C      7.689707    0.297771    3.318173
C      7.855667    0.784255    2.047774
N      7.194269    0.309795    0.975227
C      4.789504   -2.356102    0.202253
C     -0.980530   -0.323807   -0.949327
C     -1.813875   -1.359687   -0.229157
C     -3.253782   -1.326230   -0.691257
O     -3.883326   -2.382815   -0.785618
N     -3.807684   -0.042546   -0.891926
N     -5.136363   -0.025460   -1.303183
C     -6.062803   -0.421847   -0.470413
C     -5.969005   -0.716636    0.947608
C     -5.027797   -0.351143    1.890784
C     -5.307700   -0.885788    3.182439
C     -6.471861   -1.618326    3.193670
S     -7.221192   -1.650561    1.658300
C     -2.917939    0.951504   -1.491270
N     -3.370034    2.325139   -1.444447
C     -3.912987    2.822527   -0.189001
C     -4.361237    4.216805   -0.595476
C     -4.883860    4.041846   -2.014713
C     -4.286886    2.724472   -2.505001
N     -1.672876    0.953732   -0.763882
H      0.631415   -2.249672   -0.193056
H      2.396590   -1.919785    1.376917
H      2.821451   -0.378237    0.630409
H      3.018171   -3.126860   -0.721673
H      3.217038   -0.376604   -1.801351
H      3.011167   -1.908510   -2.635223
H      5.455385   -2.328335   -2.498052
H      5.149450   -0.767686   -3.251477
H      6.976990   -0.775482   -1.467665
H      5.706306    0.443403   -1.256828
H      6.577231   -1.189799    4.385247
H      8.225796    0.693517    4.168316
H      8.542371    1.598779    1.842728
H      4.597759   -2.668567    1.236668
H      5.323228   -3.195754   -0.264333
H     -0.882195   -0.565195   -2.015910
H     -1.430526   -2.365864   -0.431091
H     -1.799828   -1.211057    0.857729
H     -7.072969   -0.498568   -0.909478
H     -4.164876    0.267195    1.676563
H     -4.682608   -0.741027    4.053201
H     -6.916484   -2.137934    4.031731
H     -2.736529    0.660594   -2.535630
H     -4.775665    2.246994    0.163715
H     -3.166209    2.872222    0.612800
H     -5.115969    4.631887    0.078244
H     -3.503554    4.898457   -0.600057
H     -5.978868    3.987673   -2.016835
H     -4.581811    4.885089   -2.642678
H     -3.748997    2.865350   -3.449026
H     -5.092522    2.005112   -2.688411
H     -1.101162    1.717255   -1.124064
