39

O      0.638274    0.445131    2.279681
C      0.631503    0.353958    1.053335
N     -0.498298    0.577676    0.313180
C     -1.716879    1.108766    0.900426
C     -2.960949    0.802136    0.034030
O     -2.722104    1.392906   -1.256294
C     -3.144308   -0.723902   -0.131168
C     -4.591426   -1.197522   -0.256022
S     -5.607041   -0.076124   -1.249607
C     -5.446100    1.425993   -0.232374
C     -4.199374    1.468838    0.651902
C      1.866374   -0.009630    0.289013
C      2.968704   -0.254796    1.018676
C      4.221651   -0.619985    0.380384
C      5.382822   -0.878808    1.111332
C      6.563424   -1.228057    0.447650
C      6.587678   -1.319836   -0.945999
C      5.431809   -1.062658   -1.680605
C      4.264392   -0.716029   -1.005192
O      3.117420   -0.462465   -1.775668
C      1.907300   -0.104577   -1.188188
O      0.921235    0.121546   -1.884681
H     -0.426235    0.637908   -0.705111
H     -1.837149    0.713168    1.915433
H     -1.563123    2.191907    0.976451
H     -3.390614    1.037955   -1.873407
H     -2.712252   -1.254823    0.727044
H     -2.586908   -1.064063   -1.014396
H     -5.049959   -1.290602    0.734775
H     -4.616551   -2.194144   -0.708884
H     -5.436800    2.276557   -0.922745
H     -6.343619    1.532099    0.385900
H     -3.990002    2.524825    0.867695
H     -4.422208    1.000401    1.619749
H      2.959010   -0.189753    2.103662
H      5.383852   -0.812447    2.196914
H      7.466805   -1.428934    1.019235
H      7.508080   -1.591472   -1.457251
H      5.441567   -1.131143   -2.764462
