54

O      1.377443    2.752843    1.630107
C      0.965395    1.630441    1.349043
N      1.693241    0.619949    0.749144
C      3.045723    0.646758    0.346947
C      3.894849    1.751614    0.525370
C      5.231678    1.711500    0.108746
C      5.701830    0.561080   -0.496200
C      7.086874    0.270976   -0.982180
C      6.836071   -0.948156   -1.881696
C      5.615814   -1.678747   -1.302273
C      4.867331   -0.543095   -0.677696
C      3.546297   -0.517069   -0.257244
C     -0.477206    1.260717    1.681998
C     -0.566745    0.120918    2.695591
C     -0.846854   -1.094777    1.847041
O     -0.841536   -2.247974    2.242426
N     -1.107970   -0.671194    0.550762
C     -1.635357   -1.562545   -0.474457
C     -3.093778   -1.999113   -0.257235
C     -4.122263   -0.890373   -0.337598
C     -4.822518   -0.504816    0.746145
C     -5.896728    0.543141    0.720784
C     -6.359056    0.896074   -0.692458
C     -5.173275    1.025725   -1.640689
C     -4.361037   -0.271230   -1.695350
C     -1.241901    0.765311    0.469862
H      1.202058   -0.244102    0.545334
H      3.545449    2.664779    0.996808
H      5.878530    2.569020    0.264687
H      7.516306    1.102670   -1.547604
H      7.736093    0.013630   -0.139227
H      7.713348   -1.597783   -1.960347
H      6.598548   -0.602172   -2.897277
H      5.040848   -2.179297   -2.086279
H      5.914022   -2.400433   -0.534899
H      2.923598   -1.395227   -0.396075
H     -0.945176    2.169040    2.081313
H     -1.414012    0.264556    3.373564
H      0.353421   -0.018846    3.269330
H     -1.489550   -1.090308   -1.451418
H     -1.011975   -2.464904   -0.457910
H     -3.347653   -2.752777   -1.013682
H     -3.172124   -2.512433    0.709670
H     -4.628538   -0.967189    1.712305
H     -6.758808    0.194851    1.301128
H     -5.514238    1.440641    1.221347
H     -7.036664    0.116400   -1.063372
H     -6.931016    1.830393   -0.671555
H     -4.528319    1.848808   -1.306910
H     -5.522056    1.283562   -2.647004
H     -4.887016   -1.003592   -2.320557
H     -3.408346   -0.052972   -2.189779
H     -0.843634    1.125063   -0.483856
H     -2.299421    1.030665    0.549319
