43

O     -1.888255   -1.676242   -1.456351
C     -0.959704   -0.900136   -1.239644
N     -1.053814    0.130971   -0.315333
C     -2.101252    0.496955    0.517174
S     -1.800420    1.812303    1.504281
N     -3.222068   -0.278213    0.406392
C     -4.480331   -0.291399    1.015762
C     -4.926666    0.593750    1.984720
C     -6.217912    0.447649    2.497285
C     -7.029311   -0.575312    2.031053
C     -6.510619   -1.414021    1.065191
N     -5.265542   -1.291521    0.555591
C      0.341916   -1.054595   -1.974580
C      0.445758   -2.182316   -2.811279
C      1.611199   -2.436782   -3.530783
C      2.688293   -1.567207   -3.421434
C      2.602374   -0.440272   -2.598939
C      1.435179   -0.165220   -1.872395
O      1.285207    0.927298   -1.056208
C      2.348431    1.880508   -0.927140
C      3.349427    1.461600    0.115734
C      2.938772    1.027565    1.384972
C      3.883067    0.661695    2.347827
C      5.245518    0.732714    2.057387
C      5.664706    1.172958    0.803807
C      4.718559    1.535991   -0.150442
F      5.142223    1.958016   -1.350612
H     -0.236827    0.723045   -0.221143
H     -3.156869   -1.035554   -0.275435
H     -4.322758    1.401152    2.368546
H     -6.581327    1.134107    3.256972
H     -8.035400   -0.714303    2.408807
H     -7.096357   -2.233667    0.659525
H     -0.388500   -2.876870   -2.903885
H      1.676027   -3.313402   -4.170704
H      3.602765   -1.763497   -3.977080
H      3.479099    0.197589   -2.552805
H      2.794424    2.120479   -1.898818
H      1.887348    2.814541   -0.582712
H      1.880568    0.971825    1.633360
H      3.553647    0.322577    3.327681
H      5.977940    0.447879    2.808597
H      6.721482    1.237365    0.564610
