33

O      1.245914   -1.345819    1.082021
C      1.486063   -0.507619    0.221248
N      0.531057   -0.130261   -0.704659
C     -0.745535   -0.822113   -0.786968
C     -1.659729   -0.238054   -1.865373
C     -3.044878   -0.534675   -1.348869
O     -4.078025   -0.407749   -1.983984
N     -2.946682   -0.918516   -0.021045
C     -4.112053   -0.964273    0.864893
C     -4.522470    0.374027    1.482487
F     -4.750536    1.324662    0.552600
F     -5.651964    0.235056    2.214895
F     -3.560906    0.839035    2.315040
C     -1.604292   -0.737569    0.478889
C      2.821216    0.141573    0.134681
C      3.723602    0.020811    1.196027
F      3.404731   -0.648714    2.312473
C      4.988728    0.608904    1.144570
C      5.365268    1.330431    0.016880
Br     7.074437    2.129628   -0.061989
C      4.487133    1.467010   -1.052935
C      3.226606    0.872924   -0.984991
F      2.412066    1.023695   -2.041497
H      0.822045    0.431347   -1.499177
H     -0.539856   -1.876377   -1.016197
H     -1.494814   -0.718508   -2.833434
H     -1.547021    0.846725   -1.964264
H     -4.957012   -1.348909    0.282814
H     -3.897442   -1.690708    1.655793
H     -1.528974    0.246002    0.955214
H     -1.369017   -1.520907    1.204677
H      5.658238    0.492786    1.992453
H      4.764100    2.026158   -1.942273
