48

O     -2.119119    1.586699    0.042752
C     -2.710241    0.506925   -0.007836
C     -1.971600   -0.826602    0.075712
C     -0.465212   -0.714113    0.077648
C      0.252911   -0.716199   -1.119300
C      1.650358   -0.610163   -1.110861
C      2.384521   -0.488584    0.080477
N      3.773123   -0.390211    0.069408
C      4.553265   -0.631139    1.285220
C      5.984013   -1.025760    0.927702
C      6.670296    0.026290    0.057557
O      7.603213    0.776608    0.836855
C      5.695730    0.982059   -0.621269
C      4.437226    0.252702   -1.071447
C      1.640425   -0.485490    1.270285
C      0.242119   -0.589414    1.274807
N     -4.104364    0.441858   -0.159812
C     -4.883775   -0.746924    0.193015
C     -6.208337   -0.819071   -0.560763
C     -6.998766    0.476585   -0.425814
C     -6.148966    1.657746   -0.877762
C     -4.827570    1.713652   -0.118488
H     -2.285782   -1.343888    0.990277
H     -2.269370   -1.448748   -0.777060
H     -0.262992   -0.799743   -2.072732
H      2.161512   -0.644414   -2.069023
H      4.551933    0.264956    1.917828
H      4.123892   -1.455930    1.867058
H      6.557014   -1.217152    1.842137
H      5.945451   -1.969691    0.367894
H      7.262972   -0.491300   -0.705678
H      7.104429    1.281708    1.501825
H      5.427840    1.800401    0.060388
H      6.186582    1.460776   -1.477105
H      3.783170    0.992852   -1.548869
H      4.688334   -0.507558   -1.820786
H      2.132629   -0.370293    2.231250
H     -0.284541   -0.559564    2.225558
H     -4.319715   -1.660770   -0.006510
H     -5.060448   -0.706137    1.274737
H     -6.010206   -1.010113   -1.622977
H     -6.802812   -1.660220   -0.187419
H     -7.911654    0.421251   -1.028968
H     -7.306579    0.617388    0.617312
H     -5.946358    1.565054   -1.952158
H     -6.700848    2.593005   -0.733003
H     -5.002591    1.953964    0.937461
H     -4.211113    2.516708   -0.537099
