44

O      2.067377   -0.369367   -2.204236
C      1.634644   -0.253853   -1.063998
N      2.220374   -0.840033    0.038118
C      3.467427   -1.562805   -0.078607
C      4.640385   -0.667187    0.197225
C      5.191746   -0.550644    1.477294
C      6.267013    0.308961    1.687511
C      6.746142    1.025826    0.604766
Cl     8.067081    2.105036    0.780854
N      6.240526    0.951879   -0.641610
C      5.196242    0.110841   -0.816540
C      0.434600    0.585189   -0.803865
C      0.180995    1.670171   -1.653918
C     -0.922680    2.497489   -1.434059
C     -1.791465    2.233055   -0.376090
C     -1.564521    1.121357    0.441679
S     -2.659588    0.788618    1.807487
O     -1.908295    0.008013    2.768334
O     -3.278771    2.042430    2.178286
N     -3.841805   -0.208404    1.132750
C     -4.817884    0.383453    0.176083
C     -4.723442   -0.303931   -1.190210
O     -4.971696   -1.715709   -1.141803
C     -4.638407   -2.315804    0.118077
C     -3.471612   -1.615084    0.821498
C     -0.444673    0.304506    0.246614
H      1.958715   -0.520473    0.961036
H      3.557236   -2.018168   -1.071529
H      3.436673   -2.381466    0.649024
H      4.792717   -1.124592    2.309889
H      6.714568    0.414066    2.669011
H      4.799098    0.080707   -1.829981
H      0.856701    1.883443   -2.481410
H     -1.095672    3.353098   -2.083599
H     -2.634538    2.896868   -0.195116
H     -5.817981    0.238043    0.601213
H     -4.669534    1.460071    0.058460
H     -5.449636    0.132678   -1.883104
H     -3.728568   -0.157653   -1.626126
H     -5.536585   -2.300564    0.746485
H     -4.390019   -3.364329   -0.074081
H     -3.239070   -2.143076    1.751490
H     -2.595310   -1.632692    0.166461
H     -0.278509   -0.549959    0.897228
