32

O     -1.893633    1.001974    0.421791
C     -1.772733   -0.127141   -0.029821
N     -0.618195   -0.802939   -0.295757
C      0.667154   -0.372714   -0.118692
N      1.681594   -1.145522   -0.423823
C      2.868471   -0.485154   -0.155846
C      4.164921   -1.000709   -0.356937
C      5.295026   -0.221659   -0.047556
C      6.679520   -0.790004   -0.244193
F      7.624234    0.167130   -0.460706
F      6.761506   -1.639031   -1.305743
F      7.104486   -1.498211    0.837374
C      5.117538    1.064790    0.476951
C      3.840001    1.597704    0.684905
C      2.729581    0.803624    0.359965
S      1.053419    1.164292    0.496961
O     -2.837478   -0.960920   -0.365855
C     -4.113120   -0.415940   -0.178590
C     -4.924074   -0.973992    0.807451
C     -6.219098   -0.486884    0.979612
C     -6.694425    0.539094    0.159469
C     -5.878427    1.077762   -0.838178
C     -4.582652    0.594738   -1.016420
H     -0.707616   -1.735286   -0.668652
H      4.274232   -2.006583   -0.755869
H      5.986288    1.673508    0.730532
H      3.712500    2.598200    1.088920
H     -4.553714   -1.775844    1.438344
H     -6.859625   -0.905528    1.751456
H     -7.703685    0.919364    0.297192
H     -6.253219    1.874756   -1.475093
H     -3.948775    1.010841   -1.793191
