43

O     -3.678226    2.909842    0.033568
C     -3.206485    1.775025    0.130855
C     -4.123262    0.583581    0.245530
C     -5.247086    0.644602   -0.494231
C     -6.256107   -0.374324   -0.649461
C     -6.511214   -1.379808    0.194642
C     -5.824953   -1.647487    1.430241
C     -4.597596   -1.234961    1.769101
O     -3.721031   -0.440964    1.080288
N     -1.833620    1.551402    0.151437
C     -1.194661    0.247718   -0.048301
C      0.118274    0.374977   -0.816031
C      1.111658    1.319397   -0.121697
O      2.013935    0.580149    0.705519
C      3.126218    0.056256    0.176670
N      3.946126   -0.581040    0.979920
C      5.036091   -1.062911    0.277962
C      6.114618   -1.790538    0.820589
C      7.154295   -2.218061   -0.011774
C      7.130834   -1.929693   -1.372751
C      6.071991   -1.209615   -1.935075
C      5.033906   -0.785760   -1.088694
S      3.613553    0.103654   -1.469587
C      0.408752    2.331139    0.794309
C     -0.957109    2.714231    0.250849
H     -5.423821    1.531311   -1.103850
H     -6.874068   -0.278925   -1.540937
H     -7.324452   -2.063035   -0.043939
H     -6.355695   -2.296448    2.124103
H     -4.132712   -1.543730    2.698839
H     -1.862206   -0.416814   -0.605072
H     -1.017903   -0.189953    0.940875
H      0.547210   -0.622413   -0.960743
H     -0.106811    0.779054   -1.811719
H      1.657623    1.897912   -0.877346
H      6.127864   -2.012647    1.883177
H      7.984615   -2.778923    0.411200
H      7.946301   -2.268028   -2.008969
H      6.055306   -0.985331   -2.997289
H      1.038920    3.221957    0.903336
H      0.300806    1.916404    1.805675
H     -0.869779    3.151921   -0.750862
H     -1.420098    3.466353    0.899642
