30

O     -1.691863    1.243660   -2.497282
C     -1.463045    0.754567   -1.395520
C     -0.088898    0.496458   -0.908386
C      1.002483    0.968347   -1.532061
C      2.149351    0.497254   -0.778411
C      3.419955    0.774275   -1.096038
C      4.616774    0.348672   -0.405299
C      4.743697   -0.412365    0.691421
C      3.726159   -1.033255    1.509458
C      2.393894   -0.994397    1.369984
C      1.664343   -0.303683    0.341066
C      0.318939   -0.294444    0.242368
C     -2.593626    0.341870   -0.547881
C     -3.395362   -0.708678   -1.014958
C     -4.481580   -1.144976   -0.256443
C     -4.774931   -0.526937    0.958871
C     -3.989277    0.535332    1.413549
C     -2.899300    0.979006    0.658795
Cl    -1.998292    2.324414    1.256220
H      1.026917    1.578051   -2.421479
H      3.611194    1.392315   -1.972379
H      5.536387    0.713694   -0.863296
H      5.758611   -0.606763    1.039805
H      4.122545   -1.604356    2.348849
H      1.794673   -1.533447    2.101195
H     -0.363978   -0.798191    0.908692
H     -3.175719   -1.182250   -1.969977
H     -5.103852   -1.961213   -0.617005
H     -5.625560   -0.863438    1.547802
H     -4.240641    1.020475    2.354106
