28

O      1.199606    0.718781   -1.747683
C      1.365092    0.349340   -0.591742
N      0.385879   -0.033534    0.308241
C     -0.997354   -0.163171    0.056315
C     -1.580076   -0.011623   -1.202273
C     -2.962134   -0.163065   -1.370403
C     -3.787053   -0.478782   -0.282822
C     -5.278945   -0.618682   -0.461051
F     -5.835617   -1.513211    0.403454
F     -5.635137   -1.037482   -1.707250
F     -5.936802    0.555592   -0.257177
C     -3.200790   -0.626328    0.980990
C     -1.819782   -0.474564    1.146272
C      2.749732    0.345010   -0.062704
C      3.661873    1.310108   -0.493212
C      4.964148    1.294744    0.005975
C      5.310616    0.305936    0.916638
Br     7.073694    0.277850    1.612035
N      4.453410   -0.651357    1.339477
C      3.198677   -0.619494    0.829082
H      0.660950   -0.166775    1.273086
H     -0.987548    0.223124   -2.081607
H     -3.389049   -0.033929   -2.364556
H     -3.818829   -0.862778    1.846320
H     -1.402234   -0.600357    2.142325
H      3.361557    2.068986   -1.212783
H      5.683067    2.040451   -0.316824
H      2.563049   -1.434790    1.162851
