46

O     -1.225235    2.971853   -1.210993
C     -1.615795    2.367301   -0.231993
O     -2.418735    2.930709    0.685765
C     -1.265845    0.989958    0.142518
C     -2.175709    0.005873   -0.041333
C     -3.572072    0.184544   -0.604892
C     -4.593370   -0.653334    0.167367
C     -4.223503   -2.140171    0.238146
C     -2.783102   -2.439687   -0.183337
C     -1.830844   -1.376730    0.295984
C     -0.751449   -1.647658    1.046750
C      0.155516   -0.558045    1.540729
C      0.150519    0.716600    0.647531
C      0.791078    1.876043    1.445703
C      1.792729    2.505615    0.489412
N      2.298615    1.396730   -0.327174
C      3.406907    0.695957    0.331983
C      4.034832   -0.283702   -0.603827
C      4.599535   -0.022723   -1.837423
O      5.089044   -1.157161   -2.398280
C      4.839461   -2.165736   -1.526347
C      4.198008   -1.686351   -0.408786
C      1.110428    0.549614   -0.565372
H     -2.577567    3.831235    0.335491
H     -3.571970   -0.118976   -1.659912
H     -3.899729    1.228275   -0.584165
H     -4.679363   -0.260266    1.189131
H     -5.585377   -0.542720   -0.286119
H     -4.904558   -2.719348   -0.397350
H     -4.390908   -2.496306    1.262636
H     -2.499060   -3.432724    0.185350
H     -2.726829   -2.494272   -1.278627
H     -0.521038   -2.667794    1.340671
H      1.170904   -0.963158    1.618228
H     -0.158419   -0.310058    2.563689
H      0.070979    2.611663    1.816787
H      1.330224    1.498202    2.324253
H      2.581464    3.053973    1.016161
H      1.290790    3.228719   -0.163907
H      3.097309    0.198558    1.257469
H      4.184924    1.419596    0.609203
H      4.716114    0.878916   -2.422967
H      5.173093   -3.145400   -1.838162
H      3.884142   -2.273594    0.442417
H      0.643397    0.914657   -1.489483
H      1.360464   -0.498677   -0.763840
