30

O      5.432260    0.015211   -0.849112
C      4.884208    0.539838    0.105411
O      4.900405    1.874271    0.268854
C      4.128611   -0.173711    1.188516
C      2.618359   -0.028300    1.020112
C      1.978263   -0.812651   -0.088770
C      2.527998   -1.664544   -0.980700
S      1.354021   -2.360335   -2.111431
C      0.114761   -1.451266   -1.321335
N     -1.168954   -1.308952   -1.464544
C     -1.461009   -0.409020   -0.449590
C     -2.823442    0.065312   -0.212412
C     -3.103092    0.976494    0.817098
C     -4.408586    1.424595    1.036644
C     -5.448290    0.966780    0.229597
C     -5.185359    0.061694   -0.796769
C     -3.880133   -0.386611   -1.016644
N     -0.395413   -0.019102    0.285206
N      0.606915   -0.702152   -0.294930
H      5.416482    2.211227   -0.494241
H      4.443885    0.249971    2.149833
H      4.437557   -1.225002    1.204323
H      2.371436    1.032820    0.884961
H      2.150126   -0.341118    1.962742
H      3.573908   -1.935417   -1.051325
H     -2.303517    1.344597    1.456817
H     -4.611408    2.130666    1.837715
H     -6.463607    1.315335    0.400350
H     -5.994405   -0.297015   -1.427864
H     -3.691980   -1.093618   -1.822744
