59

O     -5.946516    1.047955   -0.049591
C     -5.174976    1.389832   -0.941247
N     -4.131923    0.606336   -1.385585
N     -3.811749   -0.535864   -0.631240
C     -2.474041   -0.875545   -0.553394
O     -1.620711   -0.359918   -1.274897
C     -2.174067   -1.975060    0.461796
C     -2.724447   -3.310191   -0.062165
C     -2.369467   -4.475144    0.855312
C     -0.867781   -4.557890    1.098018
C     -0.320430   -3.243576    1.642916
C     -0.653115   -2.059123    0.722381
C     -0.162872   -0.770496    1.392205
O     -0.922838   -0.127131    2.120431
N      1.160602   -0.402686    1.209582
C      2.074549   -1.024591    0.243406
C      3.545415   -0.597754    0.417795
N      3.690125    0.865248    0.401210
C      4.880972    1.475179    0.036950
C      6.101459    0.779528    0.023967
C      7.305069    1.394713   -0.345044
C      7.319162    2.732983   -0.716858
C      6.130212    3.450473   -0.718180
C      4.932402    2.826391   -0.346146
C      2.546157    1.660139    0.886102
C      1.640135    0.840229    1.823459
C     -5.283823    2.713371   -1.614452
C     -6.608261    3.439314   -1.663702
C     -5.504259    3.959240   -0.787800
H     -3.372378    0.992448   -1.944119
H     -4.436544   -0.718243    0.155518
H     -2.696961   -1.723013    1.394560
H     -2.328941   -3.505230   -1.067738
H     -3.814783   -3.257328   -0.167527
H     -2.889912   -4.356513    1.813577
H     -2.724137   -5.413290    0.413686
H     -0.653380   -5.367335    1.804984
H     -0.355834   -4.807380    0.160570
H     -0.738323   -3.064787    2.642840
H      0.762763   -3.333722    1.781913
H     -0.148645   -2.194004   -0.240829
H      2.005561   -2.113079    0.316902
H      1.721802   -0.735113   -0.754452
H      4.116984   -1.058751   -0.396515
H      3.930441   -0.985216    1.369040
H      6.147834   -0.262222    0.327925
H      8.229351    0.823328   -0.333652
H      8.250479    3.213408   -1.003465
H      6.125281    4.496599   -1.012272
H      4.025177    3.422389   -0.386658
H      1.964073    2.006680    0.023104
H      2.888207    2.538426    1.446764
H      0.803077    1.462891    2.155221
H      2.203252    0.545239    2.717335
H     -4.655232    2.831152   -2.493200
H     -7.466214    2.983063   -1.179381
H     -6.850761    3.994294   -2.562263
H     -5.621125    3.852281    0.286443
H     -4.996097    4.867067   -1.090796
