38

O     -1.652958   -1.135426    1.744829
C     -1.530273   -0.792984    0.564712
C     -2.736482   -0.198567   -0.144864
N     -2.949491    1.206735    0.134343
C     -3.280199    2.161515   -0.789996
C     -3.396409    3.327237   -0.070268
N     -3.153553    3.100547    1.258265
C     -2.913495    1.811882    1.357908
N     -0.358812   -0.979500   -0.192875
C      0.048752    0.061234   -1.137735
C      1.073630    0.988434   -0.537973
C      0.707551    2.227835    0.009071
C      1.666359    3.058160    0.590683
C      2.999256    2.660622    0.632034
C      3.372812    1.429721    0.093823
C      2.412957    0.589334   -0.480711
S      2.915461   -0.956216   -1.189244
C      1.929331   -2.145271   -0.267553
C      2.690037   -3.291946    0.068653
C      2.143912   -4.358396    0.774388
C      0.815558   -4.305614    1.148074
C      0.044857   -3.185862    0.819569
C      0.564837   -2.066625    0.123854
H     -2.677967   -0.351657   -1.226964
H     -3.633260   -0.728691    0.197873
H     -3.404913    1.947646   -1.842328
H     -3.643847    4.315585   -0.436039
H     -2.702516    1.281596    2.279731
H     -0.802966    0.668676   -1.450681
H      0.387568   -0.405926   -2.069979
H     -0.325505    2.564884   -0.005430
H      1.368311    4.013956    1.015884
H      3.746690    3.306546    1.085254
H      4.417412    1.129720    0.130955
H      3.738659   -3.361425   -0.220198
H      2.753743   -5.222390    1.023331
H      0.365218   -5.132049    1.692320
H     -1.000264   -3.233321    1.115875
