45

O      2.607991    1.274737    1.047767
C      2.161682    0.708260    0.054075
N      0.883157    0.906982   -0.420702
C     -0.084264    1.764863    0.226012
C     -0.771296    1.086077    1.425089
C     -1.520528    2.105782    2.295277
C     -2.766837    2.639593    1.597533
C     -3.682248    1.504937    1.139257
N     -2.929463    0.534792    0.341016
C     -3.742574   -0.431247   -0.270939
N     -3.189230   -1.588483   -0.676931
C     -3.979657   -2.489442   -1.290312
C     -5.314063   -2.291150   -1.523556
C     -5.801378   -1.089899   -1.083156
N     -5.046641   -0.161636   -0.465303
C     -1.729352   -0.028583    0.971760
C      2.931358   -0.261069   -0.743190
N      2.388083   -0.880786   -1.815389
N      3.377549   -1.670293   -2.265874
C      4.534667   -1.600019   -1.541683
C      5.762250   -2.254162   -1.688183
C      6.761274   -1.950047   -0.757728
C      6.535783   -1.033216    0.268759
C      5.298445   -0.390309    0.395581
C      4.277966   -0.681480   -0.530352
H      0.615728    0.337492   -1.220841
H      0.444829    2.664594    0.561197
H     -0.804465    2.068770   -0.540251
H      0.006330    0.626504    2.049530
H     -1.817709    1.623240    3.235277
H     -0.860162    2.937815    2.565890
H     -2.474328    3.247966    0.733240
H     -3.315416    3.301680    2.277185
H     -4.493218    1.963424    0.559702
H     -4.127066    1.013235    2.014506
H     -3.483022   -3.404347   -1.598276
H     -5.933399   -3.023932   -2.018858
H     -6.844882   -0.821688   -1.216451
H     -1.183565   -0.692883    0.290641
H     -2.021828   -0.627869    1.845004
H      3.199879   -2.242773   -3.083091
H      5.940554   -2.967609   -2.485918
H      7.731283   -2.436757   -0.835997
H      7.327914   -0.812303    0.980578
H      5.129868    0.323696    1.198106
