34

O      1.700833   -2.159311   -1.671226
C      1.554107   -1.121652   -1.032513
N      0.344441   -0.560517   -0.677993
C     -0.911817   -0.984613   -1.089322
O     -1.119751   -1.837051   -1.950706
C     -2.045664   -0.202433   -0.333038
C     -2.967708   -1.096974    0.515659
C     -3.627722   -0.262853    1.619792
C     -3.891751    1.177965    1.171999
C     -2.800353    1.614394    0.195850
C     -2.836077    0.854603   -1.144050
O     -1.530488    0.927595    0.508028
C      2.778755   -0.440765   -0.522909
C      2.778392    0.918593   -0.183736
C      3.944970    1.506508    0.299497
F      3.933787    2.805799    0.623773
C      5.118090    0.776188    0.447777
C      5.134283   -0.570360    0.092997
C      3.974831   -1.170751   -0.398957
O      4.085631   -2.492007   -0.742988
H      0.316852    0.175908    0.018392
H     -2.400429   -1.913157    0.978035
H     -3.731819   -1.555874   -0.122738
H     -2.939515   -0.230388    2.475369
H     -4.544262   -0.739794    1.982754
H     -4.874858    1.255700    0.693881
H     -3.906521    1.834367    2.049108
H     -2.675286    2.696700    0.098177
H     -2.271936    1.331312   -1.952045
H     -3.821666    0.558856   -1.511917
H      1.906810    1.552229   -0.304439
H      6.012814    1.260240    0.826817
H      6.047161   -1.152879    0.189751
H      3.265865   -2.755579   -1.222188
