40

O      0.988981    1.634325    0.937797
C      0.906894    0.518300    0.445480
N      1.966282   -0.229113   -0.029834
C      3.326067    0.150563   -0.166341
C      4.268209   -0.876574   -0.376950
Cl     3.769137   -2.536095   -0.458216
C      5.632270   -0.603069   -0.511337
C      6.073506    0.713604   -0.450547
Cl     7.748695    1.062135   -0.617239
C      5.165618    1.749456   -0.272241
C      3.805012    1.466634   -0.139974
F      2.984795    2.520694   -0.067051
C     -0.353523   -0.188301    0.393069
C     -0.621235   -1.510215    0.712118
C     -2.022069   -1.611433    0.746358
C     -2.852357   -2.885095    1.116803
C     -2.345981   -4.125705    1.458447
C     -3.458174   -4.966983    1.710999
C     -4.574201   -4.192101    1.508665
O     -4.219173   -2.933651    1.149115
N     -2.606012   -0.452284    0.447062
N     -1.587017    0.389491    0.119793
C     -1.905770    1.646443   -0.460004
C     -3.161336    2.221733   -0.200316
C     -3.497236    3.461370   -0.751878
C     -2.594957    4.125705   -1.581020
C     -1.364410    3.540523   -1.874556
C     -1.029602    2.303381   -1.324449
F      0.108167    1.729513   -1.740985
H      1.774538   -1.197504   -0.257294
H      6.343531   -1.411219   -0.662051
H      5.491965    2.785341   -0.249785
H      0.095626   -2.271436    0.984233
H     -1.302327   -4.397148    1.520985
H     -3.448566   -6.007237    2.004368
H     -5.637805   -4.374474    1.575466
H     -3.880182    1.722840    0.448444
H     -4.464682    3.906617   -0.531405
H     -2.856626    5.089433   -2.010310
H     -0.666049    4.031536   -2.545418
