45

O      4.291332   -1.569813    2.081730
C      3.945566   -0.953114    1.081507
N      4.763797   -0.243556    0.220243
C      6.150148   -0.012684    0.353721
C      6.789238    0.665316   -0.693477
C      8.158627    0.938770   -0.636996
C      8.902552    0.538935    0.469252
C      8.275962   -0.131784    1.516544
C      6.905234   -0.405532    1.459923
C      2.509741   -0.984693    0.707695
C      1.864852    0.059164    0.043096
C      0.508682   -0.060740   -0.264374
C     -0.178790   -1.214640    0.114376
C     -1.642627   -1.397003   -0.230748
O     -2.351049   -0.168989   -0.044260
C     -3.683049   -0.166907   -0.355634
C     -4.422564   -1.258428   -0.805331
C     -5.784738   -1.113365   -1.091136
C     -6.428552    0.123028   -0.930908
C     -7.794873    0.282359   -1.214100
C     -8.417953    1.520081   -1.046615
C     -7.684032    2.612561   -0.594053
C     -6.325296    2.469832   -0.308281
C     -5.683535    1.231248   -0.472260
C     -4.317112    1.068326   -0.189865
N      0.436275   -2.239142    0.759423
C      1.753443   -2.095296    1.055924
H      4.352012    0.096393   -0.638041
H      6.233909    0.988775   -1.569594
H      8.643341    1.463074   -1.456375
H      9.967738    0.749114    0.517433
H      8.850875   -0.445241    2.384449
H      6.458146   -0.925083    2.301509
H      2.383143    0.978000   -0.212751
H     -0.008853    0.744958   -0.778044
H     -2.064374   -2.170590    0.422373
H     -1.700064   -1.716023   -1.278568
H     -3.979087   -2.238993   -0.942688
H     -6.342795   -1.979882   -1.439816
H     -8.385456   -0.559914   -1.567344
H     -9.476271    1.629666   -1.268561
H     -8.168137    3.576643   -0.461827
H     -5.768449    3.334557    0.045781
H     -3.731933    1.913192    0.167124
H      2.194974   -2.932581    1.592007
