45

O      0.113085    2.243195    1.657810
C      0.790440    1.330783    1.187210
N      0.187440    0.246859    0.562240
C     -1.253157    0.156649    0.389650
C     -1.972703   -0.224830    1.682739
C     -3.424900   -0.413618    1.471958
N     -4.163223   -0.205693    0.408519
C     -5.430953   -0.553162    0.840780
C     -6.619185   -0.465899   -0.017222
C     -7.870485   -0.871267    0.448763
C     -8.973179   -0.763085   -0.397216
C     -8.801548   -0.253449   -1.678862
C     -7.527554    0.125726   -2.067023
N     -6.439366    0.028581   -1.273322
N     -5.459935   -0.975132    2.121186
O     -4.134628   -0.880053    2.535489
C      2.239203    1.266747    1.242426
N      3.055599    2.173124    1.742733
N      4.332542    1.674795    1.590939
C      4.213284    0.502451    1.002879
C      5.257498   -0.506281    0.645816
C      5.250647   -0.839758   -0.857186
C      6.413585   -0.193406   -1.605510
O      6.651881    1.105699   -1.087313
C      7.195295    1.087134    0.233183
C      6.653690   -0.058867    1.092984
O      2.906148    0.162460    0.760708
H      0.781641   -0.479958    0.178845
H     -1.617163    1.121454    0.014557
H     -1.430611   -0.593511   -0.392060
H     -1.820119    0.547931    2.443511
H     -1.542757   -1.150788    2.081769
H     -7.995298   -1.266409    1.454731
H     -9.957218   -1.072094   -0.054730
H     -9.640384   -0.152401   -2.359244
H     -7.341703    0.532225   -3.056379
H      4.999028   -1.419813    1.199186
H      4.306988   -0.524676   -1.323300
H      5.309649   -1.926431   -0.999836
H      6.170792   -0.104412   -2.671790
H      7.328166   -0.795817   -1.530710
H      8.286845    1.026753    0.163158
H      6.958928    2.052924    0.689599
H      7.335088   -0.915611    0.994186
H      6.678605    0.220931    2.154158
