30

O     -1.914190    1.646217   -1.425554
C     -1.439967    1.066081   -0.449531
C      0.051663    0.865432   -0.305525
C      0.552222   -0.082942   -1.386775
N      1.979900   -0.329538   -1.267486
C      2.511648   -1.353236   -0.540251
O      1.897296   -2.203719    0.085043
C      4.007603   -1.274851   -0.605162
C      4.288656   -0.043668   -1.445196
C      2.932579    0.502930   -1.776989
O      2.743911    1.538848   -2.396006
C     -2.359099    0.593747    0.613566
C     -3.539114    1.313538    0.845573
C     -4.432321    0.897637    1.836285
C     -4.157319   -0.243108    2.591143
C     -2.993346   -0.972395    2.349948
C     -2.104580   -0.553889    1.361566
F     -1.018291   -1.302064    1.130299
H      0.525969    1.849924   -0.403888
H      0.318952    0.513560    0.695212
H      0.022815   -1.040944   -1.325951
H      0.357431    0.340773   -2.379258
H      4.417026   -1.169953    0.403866
H      4.408856   -2.178963   -1.072045
H      4.863038    0.699169   -0.884023
H      4.820395   -0.300081   -2.366092
H     -3.765452    2.200157    0.255299
H     -5.345178    1.462090    2.014418
H     -4.854771   -0.568913    3.359445
H     -2.776334   -1.871840    2.919035
