28

O      0.887910   -1.225086   -1.184174
C      1.339000   -0.230926   -0.610815
C      0.430773    0.912584   -0.123512
N     -1.014592    0.550193   -0.132452
C     -1.755342    0.787432   -1.291206
C     -3.039847    0.598475   -1.629127
C     -4.128681    0.056957   -0.849565
C     -4.078359   -0.433043    0.393722
C     -2.825516   -0.490389    1.259807
C     -2.446668   -0.902585    2.474047
C     -1.120651   -0.463458    2.177405
C     -1.502162   -0.033108    0.947186
C      2.783309   -0.089913   -0.404887
C      3.746284   -1.038612   -0.705817
C      5.066826   -0.603763   -0.397012
C      5.076353    0.668411    0.126593
S      3.503129    1.324705    0.238501
H      0.601453    1.784079   -0.768519
H      0.721432    1.203096    0.893332
H     -1.126040    1.208400   -2.075288
H     -3.329029    0.882344   -2.640593
H     -5.088498    0.038447   -1.362524
H     -4.984697   -0.828392    0.841601
H     -2.923142   -1.373805    3.324537
H     -0.191806   -0.475429    2.735484
H      3.503367   -2.007236   -1.130656
H      5.961860   -1.194101   -0.553078
H      5.933337    1.245699    0.447010
