40

O     -1.376071   -0.785289   -0.936869
C     -1.487325   -0.154066    0.107373
C     -0.279568    0.340386    0.894688
C      1.055263    0.154083    0.156302
C      1.195778    1.147411   -1.011657
C      2.552359    0.999106   -1.687488
O      3.596653    1.130272   -0.725153
C      3.558569    0.193464    0.382531
C      4.801079    0.270347    1.318555
C      5.432139   -0.856050    0.481128
C      4.008984   -1.264421    0.060813
C      2.231919    0.341289    1.129037
N     -2.671882    0.181519    0.737176
C     -3.987865   -0.107635    0.315169
C     -4.310475   -0.801023   -0.851282
C     -5.650942   -1.037188   -1.182898
C     -6.677696   -0.583371   -0.353798
C     -6.367091    0.109933    0.812633
C     -5.032678    0.340371    1.134864
F     -4.744432    1.010570    2.262899
H     -0.427002    1.397305    1.148417
H     -0.262230   -0.229596    1.832373
H      1.103881   -0.864877   -0.250756
H      0.402026    1.004105   -1.751889
H      1.101794    2.170235   -0.624775
H      2.641191    0.031761   -2.193003
H      2.686640    1.782120   -2.440139
H      4.608034   -0.010357    2.360655
H      5.349591    1.216531    1.306919
H      5.995955   -1.606177    1.041097
H      6.048382   -0.493449   -0.349592
H      3.915780   -1.586926   -0.979473
H      3.560845   -2.030283    0.704707
H      2.178518    1.335612    1.591280
H      2.162424   -0.391117    1.942803
H     -2.611811    0.696981    1.609921
H     -3.545340   -1.172172   -1.526085
H     -5.889576   -1.579398   -2.095549
H     -7.715118   -0.771141   -0.619043
H     -7.150700    0.471134    1.470483
