29

O     -5.496715    1.555647    0.750590
C     -4.811252    1.311130   -0.224927
O     -5.149485    1.760697   -1.446332
C     -3.556538    0.521010   -0.227861
C     -2.818676    0.301335   -1.396280
C     -1.640453   -0.449053   -1.349729
C     -1.189359   -0.994497   -0.138821
C      0.096352   -1.776868   -0.091746
N      1.229122   -0.886668   -0.019637
C      2.515229   -1.384170   -0.109105
O      2.712236   -2.575945   -0.338540
C      3.570181   -0.400003    0.104690
C      3.513093    0.984143    0.126887
C      4.784053    1.583963    0.373086
C      5.775718    0.643167    0.525495
S      5.177914   -0.948762    0.365640
C     -1.927611   -0.762863    1.029926
C     -3.105755   -0.012708    0.985239
H     -5.984607    2.250544   -1.292778
H     -3.150414    0.709833   -2.347926
H     -1.073231   -0.607404   -2.265574
H      0.121035   -2.437210    0.783239
H      0.190038   -2.416166   -0.977757
H      1.085109    0.025043    0.387588
H      2.609650    1.557318   -0.039196
H      4.961813    2.651219    0.428808
H      6.826842    0.811448    0.716716
H     -1.592961   -1.167682    1.983272
H     -3.671329    0.153499    1.900459
