35

O     -0.048668   -1.755349   -0.219697
C      0.536875   -0.792977   -0.717395
C     -0.194503    0.147195   -1.622717
S     -1.113162    1.335684   -0.684524
O     -1.929358    2.071321   -1.634396
O     -0.161763    2.051799    0.146608
C     -2.208544    0.412548    0.397511
C     -3.207191   -0.472156   -0.357654
C     -4.582427    0.111083   -0.056883
C     -4.423494    0.704202    1.330736
C     -3.052280    1.357042    1.265586
C      1.991680   -0.598395   -0.431660
C      2.654739    0.605616   -0.677908
C      4.022845    0.736767   -0.398815
C      4.743112   -0.348423    0.137235
N      6.090531   -0.352780    0.453167
C      6.422750   -1.527467    0.937410
S      5.170852   -2.690167    1.041926
C      4.063945   -1.542349    0.386745
C      2.692862   -1.688476    0.113779
H     -0.885028   -0.421030   -2.251922
H      0.476440    0.681086   -2.298950
H     -1.572343   -0.195783    1.047974
H     -3.035251   -0.535435   -1.435212
H     -3.153940   -1.492509    0.041600
H     -4.822845    0.899173   -0.780369
H     -5.371822   -0.644701   -0.100231
H     -4.432272   -0.088188    2.088381
H     -5.214023    1.420210    1.572361
H     -3.140580    2.352852    0.815470
H     -2.618575    1.487836    2.262233
H      2.140220    1.481950   -1.063775
H      4.536378    1.676305   -0.583745
H      7.432234   -1.754917    1.254664
H      2.192605   -2.631569    0.321352
