57

O     -2.318627   -0.936673    3.227877
C     -2.280449   -0.785722    2.014492
N     -3.269005   -0.190884    1.275325
C     -4.434793    0.377381    1.910605
C     -5.459080    0.760714    0.875835
C     -6.279591   -0.219287    0.290442
C     -7.183268    0.124059   -0.714763
C     -7.279342    1.447851   -1.144306
C     -6.466984    2.417989   -0.561546
O     -6.521215    3.722307   -0.956140
C     -5.561487    2.086051    0.436632
C     -1.079765   -1.181097    1.212082
C     -1.332724   -2.003709    0.172356
C     -0.402331   -2.531451   -0.804389
C     -0.785480   -3.361761   -1.781561
O      0.054777   -3.898086   -2.718254
C      0.197147   -0.590496    1.763497
C      1.446649   -1.387768    1.571464
C      1.737931   -2.617790    2.127517
N      2.976554   -2.961425    1.683926
N      3.525577   -2.042023    0.875431
C      2.618922   -1.057233    0.823845
C      2.902498    0.170971    0.022529
C      2.900650   -0.062290   -1.489618
C      3.783455    1.049952   -2.000655
O      3.843288    1.415663   -3.164043
N      4.517303    1.545140   -0.924674
C      5.543305    2.526154   -1.044973
C      6.751415    2.568513   -0.147582
C      6.899040    2.152181   -1.578199
C      4.270825    0.794893    0.276877
H     -3.096136    0.041494    0.307072
H     -4.109475    1.253533    2.484741
H     -4.851999   -0.341195    2.627733
H     -6.208421   -1.256950    0.605662
H     -7.804860   -0.642032   -1.171575
H     -7.979011    1.699045   -1.932212
H     -7.196180    3.807369   -1.649800
H     -4.933518    2.863421    0.868344
H     -2.365976   -2.333408    0.020237
H      0.638383   -2.244296   -0.746390
H     -1.801836   -3.705592   -1.941133
H      0.965808   -3.612571   -2.529148
H      0.100313   -0.438404    2.848843
H      0.311687    0.414756    1.340857
H      1.172251   -3.265282    2.784599
H      3.505250   -3.803812    1.888232
H      2.146267    0.937227    0.242762
H      1.892534    0.027346   -1.903733
H      3.336193   -1.021643   -1.781162
H      5.147277    3.488272   -1.361667
H      7.133195    3.540279    0.136467
H      6.884019    1.803348    0.608328
H      7.089746    1.107944   -1.801363
H      7.372561    2.841062   -2.267583
H      5.070177    0.053459    0.381393
H      4.266555    1.454505    1.148821
