34

O      1.143807   -0.621003   -2.157199
C      1.443733    0.205083   -1.299995
N      2.701138    0.368794   -0.791049
C      3.750488   -0.549977   -1.156328
C      5.034733   -0.044001   -0.585118
C      5.631063   -0.522186    0.568164
S      7.092577    0.282568    0.944016
C      6.957061    1.285355   -0.432041
C      5.820637    1.011268   -1.159757
N      0.535155    1.107556   -0.785583
N     -0.829349    0.846421   -1.106330
C     -1.656416    0.605130   -0.014788
O     -1.266819    0.785579    1.134550
N     -2.906672    0.188796   -0.417680
C     -3.988878   -0.196483    0.397449
C     -5.203696   -0.470148   -0.242890
C     -6.324839   -0.864062    0.493490
C     -6.242520   -0.992472    1.880827
Cl    -7.664643   -1.483623    2.728877
C     -5.032228   -0.726459    2.527908
Cl    -4.854047   -0.871012    4.242065
C     -3.910410   -0.331226    1.786062
H      2.798574    0.871834    0.078223
H      3.804580   -0.624816   -2.248149
H      3.496994   -1.539818   -0.760305
H      5.277908   -1.313177    1.216574
H      7.715534    2.027139   -0.642051
H      5.557049    1.543832   -2.066510
H      0.662127    1.386161    0.186249
H     -0.914611    0.190172   -1.882889
H     -3.085752    0.268084   -1.409014
H     -5.298574   -0.379546   -1.322741
H     -7.259825   -1.069669   -0.022705
H     -2.983878   -0.139035    2.318669
