28

O     -0.771080   -2.444119   -1.143959
C     -0.921781   -1.340208   -0.631343
N      0.152925   -0.567384   -0.266809
C      1.514646   -1.001480   -0.490421
C      2.524882    0.006571    0.014775
C      3.885375   -0.281907   -0.069591
C      4.801738    0.658232    0.393491
C      4.340375    1.856543    0.924673
C      2.973262    2.068719    0.971787
N      2.058239    1.177696    0.531453
C     -2.278583   -0.787207   -0.379998
C     -3.397794   -1.618001   -0.488436
F     -3.281111   -2.918426   -0.793007
C     -4.688543   -1.129483   -0.266949
C     -4.882612    0.207915    0.068462
C     -3.779768    1.049867    0.181289
C     -2.493815    0.551500   -0.042168
F     -1.471524    1.412416    0.075666
H      0.047222    0.370972    0.111932
H      1.654356   -1.960307    0.021253
H      1.649818   -1.154009   -1.567011
H      4.229691   -1.222380   -0.488350
H      5.867892    0.456688    0.339453
H      5.029678    2.607913    1.292903
H      2.564456    2.989827    1.377199
H     -5.534049   -1.806084   -0.358212
H     -5.885836    0.589968    0.240860
H     -3.908060    2.097138    0.441059
