36

O     -5.594638   -1.506481    0.792684
C     -5.544518   -0.436124    0.214338
O     -6.692170    0.155451   -0.188480
C     -4.344152    0.401532   -0.155588
C     -2.931377   -0.065248    0.208584
C     -1.892571    0.958140   -0.241507
N     -0.526077    0.501399   -0.130502
C      0.491883    1.217730   -0.726172
O      0.303149    2.203322   -1.429926
C      1.878345    0.756059   -0.437322
C      2.919973    1.688271   -0.510031
C      4.235706    1.297654   -0.248645
C      4.526613   -0.030944    0.086368
C      5.945292   -0.466835    0.339802
O      6.476198   -1.122404   -0.803118
C      3.483799   -0.967344    0.132223
C      2.166489   -0.578657   -0.128108
C     -2.700235   -0.828208    1.502831
C     -2.592400   -1.546942    0.181967
H     -7.390915   -0.470052    0.097502
H     -4.495664    1.384889    0.307495
H     -4.379425    0.528514   -1.245061
H     -1.985351    1.866586    0.365200
H     -2.074323    1.235389   -1.286671
H     -0.288373   -0.087153    0.653607
H      2.707752    2.723535   -0.771654
H      5.030566    2.038410   -0.313194
H      5.991945   -1.151628    1.193025
H      6.584072    0.391341    0.573381
H      5.920288   -0.887059   -1.565894
H      3.698868   -2.010473    0.359589
H      1.385453   -1.333722   -0.115527
H     -1.795508   -0.656160    2.073696
H     -3.542757   -1.069123    2.142766
H     -1.612735   -1.865617   -0.155463
H     -3.363199   -2.268047   -0.068975
