42

O     -0.563476   -0.199018    2.120958
C     -0.082566   -0.103866    0.992405
N      1.250707    0.222024    0.793800
C      2.073242    0.663806    1.889980
C      3.508533    0.769914    1.472891
C      4.034020    1.954405    0.946831
C      5.367610    1.998461    0.548538
C      6.123504    0.847271    0.685876
Cl     7.772532    0.816948    0.216960
N      5.655529   -0.317477    1.176794
C      4.358571   -0.329781    1.556277
C     -0.887838   -0.317118   -0.349507
O      0.092493   -0.303878   -1.421130
C     -1.592636   -1.681191   -0.456025
C     -1.446731   -2.700102    0.500003
C     -2.081811   -3.935465    0.337349
C     -2.866091   -4.180567   -0.786165
C     -3.016532   -3.191949   -1.752579
C     -2.383658   -1.957946   -1.591657
C     -1.846041    0.871625   -0.527818
C     -1.658095    1.834240   -1.535701
C     -2.539408    2.909336   -1.675290
C     -3.621527    3.043567   -0.809387
C     -3.824506    2.104129    0.197571
C     -2.945382    1.028508    0.338151
H      1.478133    0.512375   -0.154662
H      1.696116    1.635512    2.230500
H      1.962035   -0.030492    2.731374
H      3.412271    2.841231    0.847162
H      5.799236    2.905874    0.142260
H      4.007308   -1.285009    1.940248
H      0.373388   -1.229485   -1.537486
H     -0.845340   -2.560066    1.395712
H     -1.963953   -4.707250    1.094456
H     -3.360010   -5.141079   -0.907044
H     -3.627341   -3.378147   -2.632274
H     -2.512861   -1.201099   -2.364957
H     -0.823114    1.754466   -2.228801
H     -2.380147    3.641791   -2.462495
H     -4.306459    3.880154   -0.918756
H     -4.666871    2.206739    0.876914
H     -3.122835    0.308606    1.136871
