44

O     -6.202105    1.965491   -1.640167
C     -5.301103    1.254847   -1.197560
C     -4.981705   -0.124845   -1.782845
N     -4.260000   -1.025670   -0.860096
C     -3.123429   -0.368925   -0.171653
C     -2.531268   -1.403988    0.808287
C     -1.275322   -0.893633    1.506704
N     -0.282801   -0.390807    0.567313
C      1.044520   -0.379611    0.989912
O      1.439450   -0.936500    2.007972
O      1.851811    0.315252    0.150434
C      3.230578    0.371843    0.530411
C      3.946345   -0.895462    0.052927
C      5.443530   -0.812178    0.324041
C      6.014825    0.490548   -0.222897
C      5.191564    1.679915    0.251913
O      3.819691    1.517260   -0.102303
C     -0.744434    0.524269   -0.473005
C     -2.012223    0.031429   -1.167840
C     -3.688676    0.848269    0.609339
N     -4.470441    1.740558   -0.219248
H     -5.930858   -0.602941   -2.046342
H     -4.407676    0.021654   -2.703898
H     -3.936652   -1.837541   -1.385780
H     -2.269286   -2.320158    0.260082
H     -3.271844   -1.694798    1.564332
H     -0.845239   -1.705302    2.104622
H     -1.513313   -0.081016    2.202859
H      3.321857    0.505685    1.616393
H      3.783550   -1.016119   -1.026145
H      3.524911   -1.787829    0.528137
H      5.620772   -0.862828    1.405314
H      5.957177   -1.667944   -0.127470
H      5.988008    0.450644   -1.318848
H      7.061104    0.604900    0.078981
H      5.552908    2.595785   -0.226472
H      5.277222    1.818264    1.336141
H      0.034434    0.660824   -1.230781
H     -0.903853    1.501887   -0.004338
H     -2.351871    0.808366   -1.862376
H     -1.748524   -0.841050   -1.781924
H     -2.905455    1.451744    1.076107
H     -4.357535    0.507094    1.409768
H     -4.788644    2.619608    0.169998
