31

O     -0.205994   -0.357019   -3.454201
C      0.045311   -0.370903   -2.243356
N      1.344927   -0.296228   -1.880757
C      1.933872   -0.156980   -0.623059
C      3.259325    0.329221   -0.667734
C      3.993027    0.574772    0.491714
C      3.417093    0.325448    1.724266
C      2.120985   -0.186994    1.781332
C      1.358484   -0.450211    0.615809
C      0.050130   -1.115606    0.876787
O     -0.087034   -1.652568    1.980796
N     -1.000679   -1.123847   -0.041109
C     -2.326537   -1.308429    0.556580
C     -2.850171    0.054629    1.038126
C     -2.792351    1.124296   -0.066810
C     -1.441191    1.149276   -0.804786
C     -1.071761   -0.275290   -1.221449
H      1.943451   -0.210318   -2.694732
H      3.736155    0.547645   -1.622248
H      5.007173    0.960779    0.427685
H      3.972372    0.507366    2.640928
H      1.705374   -0.403963    2.766167
H     -2.295828   -2.017584    1.390372
H     -2.995924   -1.735243   -0.199728
H     -2.243308    0.397403    1.885575
H     -3.878354   -0.048673    1.401875
H     -3.000919    2.111604    0.360064
H     -3.587749    0.919242   -0.794528
H     -1.510722    1.805164   -1.680196
H     -0.675074    1.577299   -0.147906
H     -1.924083   -0.674288   -1.795474
