50

O      0.924819    1.956197   -1.649696
C      1.328241    0.807370   -1.545790
C      2.568731    0.384584   -0.842025
C      3.390235    1.284045   -0.289173
C      4.631212    0.919844    0.388668
C      4.736065    1.016149    1.775963
C      5.925883    0.652106    2.402321
C      6.973502    0.201678    1.614830
N      6.910642    0.096655    0.269782
C      5.745064    0.465444   -0.311974
N      2.641409   -0.983857   -0.938793
N      1.726811   -1.507393   -1.892449
C      1.105037   -2.725683   -1.353088
C      0.116342   -2.528889   -0.178146
N     -0.647774   -1.269072   -0.185160
C     -1.967101   -1.438257    0.438790
C     -2.662918   -0.122780    0.746455
C     -2.064809    0.699532    1.722808
C     -2.630294    1.916523    2.080469
C     -3.805998    2.335204    1.467817
C     -4.427458    1.550486    0.485830
C     -5.609625    2.008115   -0.119829
C     -6.249405    1.260809   -1.105411
C     -5.711766    0.044947   -1.500300
C     -4.536438   -0.424744   -0.906573
C     -3.862353    0.304837    0.103234
C     -0.703485   -0.674923   -1.530428
C      0.697154   -0.438899   -2.135717
H      3.146480    2.343612   -0.310749
H      3.897376    1.366272    2.372542
H      6.032016    0.717006    3.479383
H      7.919896   -0.094384    2.058707
H      5.734017    0.382168   -1.395918
H      3.578033   -1.384706   -0.881849
H      0.557650   -3.197064   -2.180625
H      1.877059   -3.451033   -1.065715
H      0.677480   -2.563400    0.763541
H     -0.555978   -3.396952   -0.178199
H     -1.844681   -1.949813    1.404517
H     -2.589702   -2.111009   -0.157423
H     -1.137313    0.385279    2.198671
H     -2.152493    2.540734    2.830220
H     -4.232292    3.292692    1.759268
H     -6.042566    2.962482    0.173078
H     -7.161559    1.631836   -1.564319
H     -6.201800   -0.541374   -2.272937
H     -4.155200   -1.377011   -1.261269
H     -1.270348   -1.338634   -2.197186
H     -1.234945    0.283101   -1.503640
H      0.617144   -0.289828   -3.218772
