55

O      6.600558   -0.561783    3.236822
C      6.050815   -0.534157    2.122934
N      4.720887   -0.207831    2.134181
C      3.700390   -0.166501    1.171973
C      2.520368    0.468688    1.598281
C      1.390415    0.560328    0.776916
C      1.393678   -0.000519   -0.500808
C      0.195342    0.058318   -1.417152
C     -0.305878    1.470615   -1.722652
C     -1.691397    1.227441   -2.312019
N     -2.157664   -0.016446   -1.669500
S     -3.746799   -0.125740   -1.109493
O     -3.906547   -1.489072   -0.647833
O     -4.574637    0.414310   -2.169042
C     -3.822333    0.948630    0.251997
C     -4.898646    1.040552    1.048476
C     -6.151347    0.294211    0.918613
C     -6.431838   -0.745951    1.810478
C     -7.628250   -1.458229    1.705838
C     -8.550339   -1.132138    0.712455
C     -8.277122   -0.094800   -0.177506
C     -7.081496    0.618753   -0.074267
C     -1.069467   -0.621318   -0.872760
C      2.559515   -0.652132   -0.923442
C      3.705503   -0.730258   -0.103209
C      4.835810   -1.483934   -0.664871
O      4.583509   -2.535352   -1.261031
C      6.236895   -0.912210   -0.540634
C      6.518964    0.589359   -0.775615
C      7.615755    0.476111    0.296364
C      6.858681   -0.765437    0.850645
H      4.455808    0.060496    3.077432
H      2.461355    0.914384    2.590690
H      0.509579    1.069518    1.162523
H      0.448882   -0.417177   -2.376047
H      0.348241    2.011642   -2.413812
H     -0.397896    2.074723   -0.812028
H     -2.348598    2.080868   -2.124544
H     -1.632691    1.060919   -3.392827
H     -2.950173    1.553746    0.445136
H     -4.873478    1.722639    1.895156
H     -5.717464   -1.020358    2.582666
H     -7.836138   -2.273744    2.393186
H     -9.477739   -1.692104    0.625976
H     -8.989984    0.153855   -0.959282
H     -6.880257    1.419021   -0.783039
H     -1.217533   -0.417128    0.192693
H     -1.030925   -1.704202   -1.024858
H      2.586172   -1.122520   -1.907818
H      6.904411   -1.512269   -1.184890
H      5.708152    1.273189   -0.503313
H      6.872143    0.850564   -1.777291
H      8.608715    0.242238   -0.105312
H      7.700940    1.335348    0.967600
H      7.555151   -1.597156    1.043469
