42

O      6.486991   -0.463656   -0.694486
C      5.336587   -0.773214   -0.468465
C      4.938595   -2.071309    0.120594
N      3.661014   -2.169628    0.253900
N      3.080088   -0.991022   -0.214701
C      1.704956   -0.784734   -0.263239
N      0.811904   -1.640299    0.141418
C     -0.521435   -1.011947   -0.103649
C     -1.197194   -0.950605    1.288098
C     -2.725997   -0.942794    1.303571
C     -3.337187   -1.953592    0.344357
C     -2.769383   -1.810352   -1.060036
C     -1.256021   -1.983985   -1.054907
N     -0.330767    0.281082   -0.807266
C     -0.821126    1.500746   -0.339794
C     -2.121147    1.969357   -0.368385
C     -2.391586    3.233071    0.166744
C     -1.356990    4.003984    0.707531
F     -1.641119    5.205337    1.228246
C     -0.041955    3.554488    0.709055
C      0.204558    2.320038    0.141494
N      1.470868    1.664109    0.084744
C      1.118108    0.525676   -0.799967
C      4.071064   -0.014288   -0.688808
H      5.709572   -2.806593    0.383141
H     -0.815859   -0.108313    1.878171
H     -0.895311   -1.846007    1.852123
H     -3.108935    0.052126    1.072143
H     -3.073207   -1.158460    2.321592
H     -3.147341   -2.968665    0.714653
H     -4.425133   -1.824275    0.318577
H     -3.038047   -0.836481   -1.481467
H     -3.218690   -2.568784   -1.711628
H     -0.874651   -1.879328   -2.079108
H     -1.037219   -3.019859   -0.759186
H     -2.919112    1.381192   -0.805934
H     -3.403983    3.625455    0.166263
H      0.751031    4.164405    1.121372
H      1.626025    1.302999    1.027975
H      1.482875    0.704830   -1.818973
H      3.942089    0.201295   -1.751908
H      4.073072    0.887999   -0.073857
