38

O      2.006408   -0.852526    2.259051
C      2.278397   -0.069240    1.352426
C      3.658961    0.026292    0.842570
C      4.684595   -0.757610    1.383966
C      5.978515   -0.641915    0.877553
C      6.239983    0.251112   -0.161736
C      5.207696    1.028548   -0.695182
C      3.906930    0.922945   -0.197504
N      2.899738    1.719066   -0.760683
C      1.707435    1.602488   -0.280544
N      1.347546    0.763915    0.746829
C     -0.043099    0.692851    1.186539
C     -0.794512   -0.520743    0.608268
N     -0.899740   -0.552388   -0.853959
F     -1.143822   -1.836029   -1.300512
C     -1.855710    0.403677   -1.421640
F     -1.409527    1.664131   -1.142562
C     -3.302110    0.200960   -1.000962
C     -4.015655   -0.944200   -1.393537
C     -5.345621   -1.123253   -1.003907
C     -5.974953   -0.156827   -0.223232
Cl    -7.612155   -0.377236    0.256078
C     -5.286725    0.988395    0.169905
C     -3.956539    1.167547   -0.218678
H      4.476181   -1.453057    2.193551
H      6.781445   -1.246979    1.291661
H      7.247581    0.343901   -0.559792
H      5.414593    1.722818   -1.505755
H      0.888351    2.210589   -0.693578
H     -0.554390    1.629302    0.943477
H     -0.048592    0.611025    2.280626
H     -1.780625   -0.602883    1.078451
H     -0.253527   -1.426638    0.908133
H     -1.814995    0.319219   -2.513400
H     -3.537375   -1.708446   -2.004344
H     -5.882446   -2.016704   -1.312534
H     -5.779198    1.745341    0.774967
H     -3.433041    2.071144    0.089989
