61

O     -5.382729   -2.525975   -1.428629
C     -5.795521   -1.885869   -0.465603
C     -7.281803   -1.704515   -0.220775
C     -7.569787   -0.308871    0.310289
C     -6.779986   -0.004702    1.581842
C     -5.586676   -0.935649    1.772954
N     -4.973929   -1.304595    0.503342
C     -3.525793   -1.561593    0.473034
C     -2.640006   -0.425537   -0.123346
C     -1.160693   -0.864850    0.059244
O     -0.875818   -1.880240    0.690053
N     -0.232962   -0.006090   -0.509839
C      1.173682   -0.120088   -0.503619
C      1.875434   -1.164814    0.097783
C      3.275034   -1.199140    0.059006
C      3.998215   -0.190119   -0.587324
C      5.508468   -0.218100   -0.620513
N      6.025157    0.837010    0.241447
C      7.399114    0.841564    0.548212
C      8.370907    0.443365   -0.381242
C      9.736346    0.519661   -0.081923
C     10.160003    1.019841    1.146232
C      9.218422    1.455416    2.074515
C      7.855252    1.377861    1.772426
Cl     6.727217    1.932043    2.965542
C      3.293808    0.861381   -1.185421
C      1.896379    0.893513   -1.145555
C     -2.952390   -0.169242   -1.622499
C     -3.159504    1.335919   -1.765173
C     -3.697483    1.758899   -0.412811
C     -2.872874    0.939450    0.569718
H     -7.810413   -1.848541   -1.169468
H     -7.621090   -2.477170    0.477563
H     -7.295806    0.426815   -0.457086
H     -8.642339   -0.182726    0.494841
H     -6.436812    1.036287    1.539719
H     -7.432092   -0.074701    2.460454
H     -4.853302   -0.461786    2.431841
H     -5.908411   -1.864638    2.260129
H     -3.348194   -2.484843   -0.093854
H     -3.218376   -1.782231    1.503754
H     -0.593588    0.805415   -0.991438
H      1.366932   -1.975168    0.610442
H      3.791056   -2.025606    0.543116
H      5.869085   -1.200687   -0.290066
H      5.833958   -0.074289   -1.658041
H      5.474730    0.936396    1.096488
H      8.085749    0.079494   -1.363991
H     10.468748    0.197506   -0.818550
H     11.220864    1.081506    1.374809
H      9.547829    1.858070    3.028488
H      3.836245    1.666841   -1.677483
H      1.386701    1.727647   -1.620740
H     -3.869465   -0.668381   -1.939254
H     -2.165741   -0.520732   -2.298760
H     -3.849323    1.579680   -2.578669
H     -2.209076    1.839396   -1.972235
H     -3.593879    2.834435   -0.242964
H     -4.759055    1.503167   -0.331389
H     -1.930124    1.464440    0.765066
H     -3.370296    0.858469    1.538372
