42

O      2.521235   -3.381540   -1.952356
C      1.836166   -2.377632   -1.783387
N      2.136600   -1.536864   -0.754851
C      1.279071   -0.537234   -0.168661
C      2.076912    0.422756    0.703915
C      2.825760   -0.019493    1.808892
C      3.549976    0.883183    2.590438
C      3.538012    2.240799    2.281601
C      2.800824    2.698837    1.192799
C      2.075204    1.798208    0.409910
N      0.199693   -1.176972    0.564374
F      0.535568   -1.821098    1.746162
C     -0.958023   -1.618352   -0.039700
O     -1.728955   -2.443982    0.443167
C     -1.236605   -1.030006   -1.388939
C     -1.992433    0.092641   -1.395287
C     -2.560195    0.795366   -0.237727
C     -2.136972    2.100609    0.040826
C     -2.663233    2.794769    1.132179
C     -3.621005    2.192279    1.945751
C     -4.056285    0.898078    1.666760
C     -3.531699    0.203003    0.575443
C     -0.656882   -1.590108   -2.625633
C     -0.402969   -3.055736   -2.774703
C      0.764021   -2.076441   -2.766343
H      2.843221   -1.930125   -0.148856
H      0.875162    0.046930   -0.999165
H      2.843468   -1.073196    2.081018
H      4.119968    0.525509    3.444578
H      4.100991    2.941978    2.892378
H      2.790653    3.759433    0.953994
H      1.508137    2.184329   -0.434387
H     -2.202931    0.586313   -2.342677
H     -1.393268    2.588279   -0.583951
H     -2.326045    3.804965    1.349384
H     -4.028825    2.729938    2.797935
H     -4.801888    0.424717    2.300692
H     -3.882742   -0.807913    0.374992
H     -1.063766   -1.118083   -3.521040
H     -0.647502   -3.532400   -3.717982
H     -0.534313   -3.712418   -1.919957
H      1.205895   -1.873326   -3.741586
