49

O     -1.214555    0.834809    2.158764
C     -2.221980    0.272618    1.737041
N     -3.440405    0.899073    1.781265
C     -4.589191    0.403359    1.071093
C     -4.780649   -1.101146    1.245571
C     -3.498011   -1.843545    1.635707
C     -2.214496   -1.136459    1.170705
C     -2.054475   -1.206299   -0.359657
N     -0.884990   -0.533333   -0.927381
C      0.382538   -0.938039   -0.524894
O      0.561670   -1.918683    0.204594
C      1.597982   -0.169973   -1.094437
N      2.681373   -0.211191   -0.123831
C      3.981849    0.023761   -0.474142
O      4.351574    0.431140   -1.565969
C      4.958971   -0.240666    0.610209
C      5.014805   -1.582402    1.304535
C      6.112118   -1.185389    0.362491
C      1.238295    1.252816   -1.547948
C      0.828113    2.161388   -0.369595
C     -0.588973    2.704614   -0.521434
O     -1.552824    1.695136   -0.820210
C     -1.118706    0.677811   -1.713207
C      0.087954    1.099261   -2.538285
H     -3.389230    1.876226    2.043861
H     -5.470828    0.948612    1.422570
H     -4.450899    0.652721    0.013611
H     -5.191744   -1.517426    0.317940
H     -5.537744   -1.288754    2.017203
H     -3.471573   -1.918601    2.731734
H     -3.534180   -2.873455    1.261659
H     -1.378337   -1.655762    1.653386
H     -2.946450   -0.835515   -0.874147
H     -1.963740   -2.263779   -0.641538
H      1.935777   -0.747302   -1.966340
H      2.491210   -0.689734    0.751417
H      5.187646    0.638552    1.204256
H      4.340906   -2.369163    0.983281
H      5.233776   -1.593057    2.366027
H      7.077152   -0.921898    0.779192
H      6.166390   -1.681596   -0.600654
H      2.096167    1.703269   -2.060783
H      1.529775    3.000097   -0.289042
H      0.894724    1.619630    0.580532
H     -0.902359    3.203252    0.401656
H     -0.628445    3.462342   -1.312813
H     -1.948866    0.467848   -2.397206
H      0.323730    0.349592   -3.303200
H     -0.100844    2.045241   -3.058876
