35

O     -1.755279   -0.421479    1.894692
C     -2.295906   -1.055440    0.998335
C     -3.739211   -0.882806    0.612359
C     -4.009397   -0.843996   -0.894032
S     -2.789201   -0.030756   -1.986503
C     -2.323850    1.352846   -1.059061
N     -3.166656    2.315840   -0.774518
C     -2.384945    3.221809   -0.145836
N     -1.112727    2.875798    0.016188
N     -1.046133    1.604646   -0.522498
C      0.108463    0.787917   -0.443779
C      1.271767    1.255875    0.067202
C      2.534847    0.513374    0.198348
C      2.791301   -0.144552    1.410510
C      3.966008   -0.879489    1.582945
C      4.897988   -0.958822    0.550126
C      4.661476   -0.295841   -0.654496
C      3.487781    0.442204   -0.831142
Cl     3.270505    1.270273   -2.332818
C      0.129097   -0.633890   -0.899222
O      0.433840   -0.900272   -2.061437
C     -0.239062   -1.726281    0.111326
O     -1.651672   -1.920476    0.177335
H     -4.323771   -1.681056    1.082153
H     -4.080173    0.062775    1.052207
H     -4.983804   -0.374078   -1.068659
H     -4.096451   -1.873579   -1.259824
H     -2.752489    4.176617    0.209601
H      1.339717    2.285915    0.418537
H      2.080055   -0.085617    2.233072
H      4.156391   -1.386702    2.526195
H      5.813615   -1.530026    0.684459
H      5.397651   -0.354095   -1.452573
H      0.209893   -2.664426   -0.233283
H      0.200332   -1.522209    1.092978
