29

O     -3.994958    1.547216    1.939337
C     -4.267648    0.588992    1.217092
C     -3.338883   -0.172814    0.396816
N     -3.766488   -1.286895   -0.247229
N     -2.660451   -1.711445   -0.894721
C     -1.560718   -0.965018   -0.648990
C     -1.963071    0.080123    0.133486
N     -1.175202    1.096000    0.574457
N     -0.479257    1.925089   -0.429372
C      0.782089    1.540695   -0.726641
C      1.491838    2.328918   -1.803075
F      2.723925    1.817903   -2.100033
F      0.816273    2.358983   -2.986715
F      1.715426    3.627224   -1.448996
C      1.522221    0.319711   -0.062826
C      2.621719    0.566603    0.766782
C      3.337222   -0.494971    1.323078
C      2.954650   -1.808815    1.057322
C      1.847805   -2.059211    0.244700
C      1.127504   -0.996700   -0.321172
C     -0.157008   -1.284242   -1.116746
O     -0.073980   -2.020156   -2.090775
H     -5.307059    0.223620    1.167156
H     -2.712578   -2.538991   -1.477007
H     -1.625995    1.735216    1.237571
H      2.914489    1.591372    0.978073
H      4.188309   -0.291371    1.965484
H      3.506726   -2.635524    1.493459
H      1.533102   -3.081511    0.054915
