35

O     -1.914074   -2.797830   -0.722137
S     -1.630810   -1.682644    0.155398
O     -1.764899   -1.807547    1.591267
C      0.012460   -1.125330   -0.216418
C      0.400386   -1.001022   -1.551048
C      1.692496   -0.565008   -1.848835
C      2.599110   -0.257963   -0.826395
O      3.824077    0.154382   -1.266877
C      4.807126    0.536685   -0.300896
F      4.311252    1.529479    0.481327
F      5.067454   -0.532189    0.499829
C      6.091624    0.980077   -1.000728
F      5.876381    2.074092   -1.781502
F      7.045951    1.337183   -0.099553
C      2.200769   -0.397801    0.505374
C      0.907960   -0.834837    0.814325
N     -2.601922   -0.357591   -0.331870
C     -2.298546    0.934350    0.366245
C     -3.380929    1.991529    0.159287
S     -4.945873    1.548202    0.986855
C     -4.849260   -0.268419    0.818436
C     -4.062379   -0.689695   -0.419079
H     -0.292820   -1.241392   -2.354356
H      1.994828   -0.466070   -2.889459
H      6.495960    0.185205   -1.633770
H      2.870863   -0.180405    1.332875
H      0.614644   -0.946467    1.856364
H     -2.138659    0.769495    1.438076
H     -1.365435    1.327705   -0.052636
H     -3.581252    2.140285   -0.907147
H     -3.048677    2.950556    0.569147
H     -4.399901   -0.677253    1.729012
H     -5.873873   -0.648114    0.755946
H     -4.464621   -0.216131   -1.323584
H     -4.199408   -1.765518   -0.574060
