29

O      2.129334    3.357215   -0.450301
S      2.023821    2.287778    0.519351
O      2.617636    2.373519    1.837321
C      2.564854    0.765854   -0.239910
C      1.285347    0.007166   -0.621558
C      1.510040   -1.500751   -0.787689
S      2.659320   -1.886477   -2.143222
C      0.280436    0.324081    0.519671
C     -1.127828   -0.181646    0.296396
C     -1.750963   -0.952552    1.289853
C     -3.050004   -1.431784    1.111044
C     -3.744839   -1.144697   -0.060665
C     -3.142346   -0.376094   -1.053040
C     -1.843261    0.104567   -0.876278
C      0.309125    1.844991    0.696324
H      3.187402    1.004764   -1.105552
H      3.154544    0.218937    0.502554
H      0.906298    0.423388   -1.565074
H      1.903080   -1.942649    0.134103
H      0.565782   -2.003605   -1.017888
H      3.788217   -1.515507   -1.521063
H      0.676116   -0.130201    1.440442
H     -1.232479   -1.189521    2.216926
H     -3.520846   -2.028935    1.888067
H     -4.756363   -1.517536   -0.199534
H     -3.685837   -0.148679   -1.966964
H     -1.405110    0.706868   -1.669071
H     -0.051628    2.160326    1.678766
H     -0.249849    2.371183   -0.083789
