30

O     -2.357781    3.537573    1.415843
C     -1.452363    2.632105    1.048518
N     -0.211390    2.928553    1.156700
C      0.618688    1.905745    0.799959
N      1.815137    1.771497    1.288737
C      2.307834    0.555106    0.771862
C      3.541443   -0.037198    1.014775
Cl     4.707370    0.699515    2.042332
C      3.834739   -1.263024    0.410382
C      2.893501   -1.875581   -0.430040
Cl     3.276169   -3.381496   -1.171557
C      1.651812   -1.286961   -0.680589
C      1.373208   -0.079301   -0.062218
C      0.169959    0.805371   -0.156250
C     -1.165560    0.315648    0.420618
C     -1.797762   -0.753513   -0.442501
C     -1.916197   -2.085864   -0.086115
S     -2.665734   -3.034283   -1.295159
C     -2.867042   -1.677454   -2.311820
C     -2.367449   -0.527674   -1.742557
N     -2.011646    1.487668    0.601968
H     -1.870285    4.322683    1.719759
H      4.794998   -1.740104    0.589611
H      0.938289   -1.760650   -1.348323
H      0.075943    1.233485   -1.161895
H     -0.995251   -0.116609    1.417999
H     -1.590754   -2.560253    0.830771
H     -3.344335   -1.786318   -3.276539
H     -2.409019    0.438031   -2.234584
H     -2.976522    1.333301    0.870314
