53

O     -1.614306   -3.112095    1.699919
C     -0.865809   -2.298224    0.872881
C      0.480587   -2.302986    0.912628
C      1.377181   -1.445863    0.042860
C      2.801055   -1.990509   -0.048783
C      3.323639   -2.384763   -1.291709
C      4.627326   -2.875276   -1.395012
C      5.427752   -2.978472   -0.259562
C      4.927103   -2.592196    0.981181
C      3.624272   -2.101574    1.087181
N      1.358230   -0.076527    0.562398
C      1.167543    0.955804   -0.479532
C      1.455183    2.351573    0.066890
N      2.398133    3.138983   -0.420565
C      2.428573    4.326816    0.281559
C      1.517204    4.436190    1.307329
S      0.587314    3.003080    1.408702
C     -0.179362    0.953510   -1.296392
N     -1.499698    1.070199   -0.621124
C     -2.576864    1.214889   -1.609622
C     -3.679956    2.134893   -1.088796
C     -4.765993    1.471398   -0.251228
C     -4.368083    0.227632    0.530275
C     -3.033937    0.336881    1.262407
C     -1.756918    0.057767    0.428058
C     -1.689566   -1.425392   -0.048085
H     -1.012793   -3.606866    2.282035
H      0.980696   -2.963411    1.614657
H      0.966574   -1.487456   -0.971815
H      2.719224   -2.312514   -2.193351
H      5.019216   -3.175630   -2.363525
H      6.442834   -3.358588   -0.342271
H      5.551934   -2.670812    1.867279
H      3.252742   -1.803816    2.065916
H      2.240504    0.119686    1.031434
H      1.958424    0.786364   -1.226527
H      3.144682    5.089297    0.000744
H      1.359272    5.262797    1.984236
H     -0.096561    1.810025   -1.982209
H     -0.185683    0.075640   -1.952995
H     -2.966640    0.249645   -1.953141
H     -2.184069    1.709574   -2.507972
H     -3.230857    2.955186   -0.512308
H     -4.166677    2.622514   -1.943644
H     -5.171081    2.220206    0.441404
H     -5.602102    1.199816   -0.908712
H     -4.387425   -0.639077   -0.136899
H     -5.155207    0.040068    1.272229
H     -2.954248    1.326215    1.732297
H     -3.049167   -0.382571    2.092324
H     -0.974368    0.210230    1.177094
H     -1.279895   -1.511408   -1.059489
H     -2.689933   -1.860852   -0.140646
