53

O      1.626848   -0.921646    1.991496
C      1.853020   -0.764624    0.689349
C      1.069114   -1.013002   -0.423162
C     -0.304953   -1.591023   -0.501064
N     -1.265131   -0.580073   -0.955238
C     -1.520314    0.448261    0.076647
C     -2.557462    1.504166   -0.287145
C     -3.761457    1.570668    0.414877
C     -4.699389    2.536340    0.059160
C     -4.414885    3.409540   -0.983272
C     -3.198319    3.279675   -1.630442
N     -2.271393    2.351872   -1.309842
C     -2.495315   -1.202178   -1.484766
C     -3.480204   -1.841217   -0.507885
C     -4.821885   -1.943398   -0.881427
C     -5.724350   -2.559843   -0.018473
C     -5.268932   -3.068854    1.190432
C     -3.924346   -2.938715    1.486615
N     -3.026098   -2.342323    0.670941
C      1.879778   -0.614338   -1.510679
N      3.077373   -0.165154   -1.135232
N      3.050011   -0.272725    0.215039
C      4.196192    0.155172    1.024157
C      4.529116    1.643901    0.816316
C      5.605513    1.844038   -0.243490
C      6.841082    0.991938    0.041546
C      6.560652   -0.142104    1.020033
O      5.297706   -0.731990    0.752506
H      0.735940   -1.301348    2.090979
H     -0.258699   -2.421690   -1.217941
H     -0.581737   -2.028311    0.463500
H     -1.792203   -0.012830    1.034207
H     -0.594958    1.006109    0.268678
H     -3.971844    0.876816    1.223135
H     -5.643565    2.605988    0.591726
H     -5.122286    4.174163   -1.284379
H     -2.925927    3.938046   -2.450288
H     -2.225794   -1.968469   -2.223480
H     -3.030646   -0.441155   -2.066975
H     -5.165239   -1.547503   -1.832488
H     -6.772159   -2.646545   -0.291668
H     -5.944710   -3.559842    1.881679
H     -3.518102   -3.326498    2.416276
H      1.636176   -0.637980   -2.565222
H      3.914505    0.006500    2.073229
H      4.912761    2.048114    1.762687
H      3.633006    2.229192    0.578275
H      5.204959    1.580103   -1.229777
H      5.887096    2.902120   -0.301787
H      7.655825    1.613190    0.431745
H      7.197351    0.575941   -0.909546
H      6.588900    0.208765    2.058531
H      7.329377   -0.915242    0.921909
