41

O      3.511975   -1.359325    1.784732
C      2.290625   -0.751394    1.303941
C      2.632145    0.473613    0.437894
C      3.802935    0.398374   -0.351935
C      4.249513    1.474361   -1.120742
C      3.537227    2.664075   -1.126001
C      2.363745    2.769345   -0.382045
C      1.881871    1.689447    0.386805
S      0.242804    2.039257    1.128889
C     -0.693480    0.792610    0.215173
N     -0.353264   -0.408479    0.915083
C      0.159494   -1.360913   -0.020886
C     -0.972587   -2.287894   -0.455011
C     -2.425296   -1.807399   -0.151508
C     -2.926778   -0.359816   -0.309044
C     -4.295394   -0.228243   -0.628582
C     -4.915947    1.019177   -0.695752
C     -4.187914    2.171430   -0.433722
C     -2.836498    2.080551   -0.105444
C     -2.186850    0.833249   -0.018753
C      1.423089   -1.912200    0.656014
O      2.239846   -2.654799   -0.266055
H      3.672934   -2.101681    1.170149
H      1.798488   -0.387611    2.213157
H      4.398681   -0.512791   -0.358120
H      5.163090    1.381551   -1.702256
H      3.887115    3.508297   -1.713715
H      1.813287    3.707782   -0.420827
H     -0.290668    0.862362   -0.804534
H     -1.071819   -0.710072    1.563848
H      0.532735   -0.912780   -0.953632
H     -0.843874   -3.278676   -0.001494
H     -0.893137   -2.438160   -1.540065
H     -3.072298   -2.454266   -0.761097
H     -2.650243   -2.084113    0.889011
H     -4.902017   -1.112564   -0.818480
H     -5.971333    1.088055   -0.946454
H     -4.668872    3.144643   -0.488926
H     -2.288717    3.004041    0.073115
H      1.159696   -2.615851    1.456506
H      1.685686   -3.363189   -0.637485
