52

O      0.858882   -2.266489   -0.283509
C     -0.191378   -1.418262   -0.782383
C      0.107026    0.102884   -0.977262
C      1.468575    0.729552   -1.363210
C      1.797498    0.472583   -2.842227
C      2.221410   -0.952718   -3.143637
S      3.755316   -1.412117   -2.301357
C      3.601176   -0.562264   -0.739135
C      4.606005   -0.841471    0.202958
C      4.644161   -0.189868    1.434842
C      3.686292    0.767850    1.733802
C      2.683654    1.053995    0.808387
C      2.602773    0.375558   -0.426163
C     -0.511516    0.326744    0.451797
C     -1.307837    1.666410    0.788615
C     -1.515205    2.708085   -0.136692
C     -2.215517    3.872335    0.197612
C     -2.731665    4.032569    1.477849
C     -2.545217    3.030290    2.421172
C     -1.843459    1.871290    2.077659
C     -1.312860   -1.015137    0.243038
C     -2.720120   -0.885151   -0.372463
C     -3.308927   -2.275693   -0.594901
O     -3.355958   -3.001170    0.634826
C     -2.047221   -3.211514    1.171721
C     -1.404660   -1.872914    1.515376
H      1.333936   -1.758064    0.397496
H     -0.588591   -1.876643   -1.695329
H     -0.587247    0.484499   -1.747002
H      1.340937    1.820222   -1.294416
H      2.593573    1.159787   -3.161452
H      0.924885    0.716851   -3.461143
H      2.395557   -1.058539   -4.219822
H      1.441572   -1.671513   -2.886357
H      5.383358   -1.569048   -0.025302
H      5.433388   -0.417838    2.146270
H      3.721951    1.299477    2.681317
H      1.956846    1.826330    1.058468
H      0.241821    0.177661    1.239586
H     -1.126801    2.624263   -1.148548
H     -2.356174    4.652777   -0.545914
H     -3.277008    4.935212    1.739293
H     -2.944696    3.145167    3.425430
H     -1.710471    1.101306    2.836236
H     -2.704059   -0.334637   -1.318790
H     -3.369553   -0.334773    0.319306
H     -4.334845   -2.186941   -0.966227
H     -2.739305   -2.850042   -1.334020
H     -1.447305   -3.787626    0.458175
H     -2.155516   -3.814432    2.078774
H     -0.421779   -2.033759    1.970741
H     -2.025702   -1.355073    2.256512
