55

O     -4.980018   -3.347269    2.045423
C     -4.642363   -3.144503    0.679819
C     -4.665896   -1.656728    0.337298
C     -4.373973   -1.404999   -1.148616
C     -3.474005   -0.176790   -1.169277
C     -2.596465   -0.384976    0.064505
N     -1.880613    0.805587    0.515004
C     -0.755639    1.201995   -0.353353
C      0.488169    0.323063   -0.069910
C      1.634271    0.596002   -1.062048
N      2.852654   -0.209198   -0.902202
C      2.619256   -1.663565   -0.997378
C      3.941386   -2.442464   -1.180353
C      4.972061   -1.905216   -0.241207
C      4.840205   -0.704730    0.429151
C      5.995261   -0.438445    1.228063
C      6.944008   -1.433425    1.119538
S      6.445544   -2.687861    0.065233
C      3.606822    0.150175    0.316863
C     -0.455502    2.675284   -0.135417
C     -0.115101    3.193416    1.120162
C      0.154044    4.551148    1.262224
C      0.071512    5.356139    0.139554
N     -0.258693    4.900602   -1.087406
C     -0.514491    3.577012   -1.195874
C     -3.616579   -0.838934    1.115556
H     -5.870185   -2.983002    2.187679
H     -5.358423   -3.699430    0.064736
H     -3.649212   -3.573347    0.512121
H     -5.656079   -1.256813    0.592116
H     -3.847317   -2.255936   -1.597787
H     -5.292550   -1.242447   -1.721862
H     -2.899491   -0.114188   -2.097883
H     -4.079799    0.733099   -1.078419
H     -1.904500   -1.217298   -0.110558
H     -2.542263    1.581944    0.568060
H     -1.044309    1.071311   -1.403350
H      0.208176   -0.732670   -0.148712
H      0.832616    0.477951    0.959203
H      1.258476    0.437130   -2.081424
H      1.920721    1.653938   -1.025316
H      2.106595   -2.029072   -0.097904
H      1.973954   -1.891704   -1.854204
H      4.298072   -2.320531   -2.210714
H      3.765146   -3.510029   -1.006747
H      6.126226    0.439567    1.848561
H      7.907205   -1.486453    1.607410
H      3.005557    0.008569    1.222521
H      3.909068    1.203191    0.264856
H     -0.068124    2.541211    1.989193
H      0.419404    4.970418    2.226146
H      0.272667    6.421901    0.199364
H     -0.775882    3.254386   -2.200387
H     -4.114552    0.026527    1.572927
H     -3.137051   -1.399545    1.925022
