32

S     -0.156354    2.045919   -2.640371
C     -0.447024    1.127332   -1.257172
N     -1.446701    1.568604   -0.452783
C     -2.053843    0.988890    0.730710
C     -3.193041    0.043727    0.368863
C     -2.803482   -1.413615    0.108882
C     -1.674604   -1.633354   -0.905560
Cl    -1.716550   -3.369179   -1.398576
C     -0.288407   -1.323929   -0.318654
C      0.410511   -0.112543   -0.959255
C      1.694589    0.214491   -0.195602
C      1.726511    1.128704    0.867587
C      2.915737    1.381228    1.556047
C      4.087503    0.720244    1.196789
C      4.072470   -0.195009    0.148286
C      2.885346   -0.447951   -0.541334
H     -1.899713    2.404392   -0.813600
H     -2.465822    1.838094    1.288012
H     -1.303846    0.524477    1.371358
H     -3.910730    0.039678    1.199352
H     -3.736121    0.430131   -0.503191
H     -2.540936   -1.887700    1.064064
H     -3.712946   -1.923939   -0.236306
H     -1.871700   -1.077687   -1.826596
H      0.383192   -2.183873   -0.457281
H     -0.339389   -1.216930    0.770835
H      0.729960   -0.472827   -1.951086
H      0.833492    1.665945    1.173116
H      2.927265    2.098323    2.372868
H      5.011827    0.919812    1.732147
H      4.985356   -0.712383   -0.135077
H      2.897448   -1.169072   -1.356474
